self exe links to: /workspace/gpgpu-sim_simulations/benchmarks/src/cuda/bin/release/BP
self exe links to: /workspace/gpgpu-sim_simulations/benchmarks/src/cuda/bin/release/BP
10.1


        *** GPGPU-Sim Simulator Version 4.2.0  [build gpgpu-sim_git-commit-a4ce3fe_modified_2.0] ***


GPGPU-Sim PTX: simulation mode 0 (can change with PTX_SIM_MODE_FUNC environment variable:
               1=functional simulation only, 0=detailed performance simulator)
GPGPU-Sim PTX: overriding embedded ptx with ptx file (PTX_SIM_USE_PTX_FILE is set)
GPGPU-Sim: Configuration options:

-save_embedded_ptx                      0 # saves ptx files embedded in binary as <n>.ptx
-keep                                   0 # keep intermediate files created by GPGPU-Sim when interfacing with external programs
-gpgpu_ptx_save_converted_ptxplus                    0 # Saved converted ptxplus to a file
-gpgpu_occupancy_sm_number                   70 # The SM number to pass to ptxas when getting register usage for computing GPU occupancy. This parameter is required in the config.
-ptx_opcode_latency_int      4,13,4,5,145,32 # Opcode latencies for integers <ADD,MAX,MUL,MAD,DIV,SHFL>Default 1,1,19,25,145,32
-ptx_opcode_latency_fp          4,13,4,5,39 # Opcode latencies for single precision floating points <ADD,MAX,MUL,MAD,DIV>Default 1,1,1,1,30
-ptx_opcode_latency_dp         8,19,8,8,330 # Opcode latencies for double precision floating points <ADD,MAX,MUL,MAD,DIV>Default 8,8,8,8,335
-ptx_opcode_latency_sfu                  100 # Opcode latencies for SFU instructionsDefault 8
-ptx_opcode_latency_tesnor                   64 # Opcode latencies for Tensor instructionsDefault 64
-ptx_opcode_initiation_int          2,2,2,2,8,4 # Opcode initiation intervals for integers <ADD,MAX,MUL,MAD,DIV,SHFL>Default 1,1,4,4,32,4
-ptx_opcode_initiation_fp            2,2,2,2,4 # Opcode initiation intervals for single precision floating points <ADD,MAX,MUL,MAD,DIV>Default 1,1,1,1,5
-ptx_opcode_initiation_dp          4,4,4,4,130 # Opcode initiation intervals for double precision floating points <ADD,MAX,MUL,MAD,DIV>Default 8,8,8,8,130
-ptx_opcode_initiation_sfu                    8 # Opcode initiation intervals for sfu instructionsDefault 8
-ptx_opcode_initiation_tensor                   64 # Opcode initiation intervals for tensor instructionsDefault 64
-cdp_latency         7200,8000,100,12000,1600 # CDP API latency <cudaStreamCreateWithFlags, cudaGetParameterBufferV2_init_perWarp, cudaGetParameterBufferV2_perKernel, cudaLaunchDeviceV2_init_perWarp, cudaLaunchDevicV2_perKernel>Default 7200,8000,100,12000,1600
-network_mode                           2 # Interconnection network mode
-inter_config_file                   mesh # Interconnection network config file
-icnt_in_buffer_limit                  512 # in_buffer_limit
-icnt_out_buffer_limit                  512 # out_buffer_limit
-icnt_subnets                           2 # subnets
-icnt_arbiter_algo                      1 # arbiter_algo
-icnt_verbose                           0 # inct_verbose
-icnt_grant_cycles                      1 # grant_cycles
-gpgpu_ptx_use_cuobjdump                    1 # Use cuobjdump to extract ptx and sass from binaries
-gpgpu_experimental_lib_support                    0 # Try to extract code from cuda libraries [Broken because of unknown cudaGetExportTable]
-checkpoint_option                      0 #  checkpointing flag (0 = no checkpoint)
-checkpoint_kernel                      1 #  checkpointing during execution of which kernel (1- 1st kernel)
-checkpoint_CTA                         0 #  checkpointing after # of CTA (< less than total CTA)
-resume_option                          0 #  resume flag (0 = no resume)
-resume_kernel                          0 #  Resume from which kernel (1= 1st kernel)
-resume_CTA                             0 #  resume from which CTA 
-checkpoint_CTA_t                       0 #  resume from which CTA 
-checkpoint_insn_Y                      0 #  resume from which CTA 
-gpgpu_ptx_convert_to_ptxplus                    0 # Convert SASS (native ISA) to ptxplus and run ptxplus
-gpgpu_ptx_force_max_capability                   70 # Force maximum compute capability
-gpgpu_ptx_inst_debug_to_file                    0 # Dump executed instructions' debug information to file
-gpgpu_ptx_inst_debug_file       inst_debug.txt # Executed instructions' debug output file
-gpgpu_ptx_inst_debug_thread_uid                    1 # Thread UID for executed instructions' debug output
-gpgpu_simd_model                       1 # 1 = post-dominator
-gpgpu_shader_core_pipeline              2048:32 # shader core pipeline config, i.e., {<nthread>:<warpsize>}
-gpgpu_tex_cache:l1  N:4:128:256,L:R:m:N:L,T:512:8,128:2 # per-shader L1 texture cache  (READ-ONLY) config  {<nsets>:<bsize>:<assoc>,<rep>:<wr>:<alloc>:<wr_alloc>,<mshr>:<N>:<merge>,<mq>:<rf>}
-gpgpu_const_cache:l1 N:128:64:8,L:R:f:N:L,S:2:64,4 # per-shader L1 constant memory cache  (READ-ONLY) config  {<nsets>:<bsize>:<assoc>,<rep>:<wr>:<alloc>:<wr_alloc>,<mshr>:<N>:<merge>,<mq>} 
-gpgpu_cache:il1     N:64:128:16,L:R:f:N:L,S:2:48,4 # shader L1 instruction cache config  {<nsets>:<bsize>:<assoc>,<rep>:<wr>:<alloc>:<wr_alloc>,<mshr>:<N>:<merge>,<mq>} 
-gpgpu_cache:dl1     S:4:128:64,L:T:m:L:L,A:512:8,16:0,32 # per-shader L1 data cache config  {<nsets>:<bsize>:<assoc>,<rep>:<wr>:<alloc>:<wr_alloc>,<mshr>:<N>:<merge>,<mq> | none}
-gpgpu_l1_cache_write_ratio                   25 # L1D write ratio
-gpgpu_l1_banks                         4 # The number of L1 cache banks
-gpgpu_l1_banks_byte_interleaving                   32 # l1 banks byte interleaving granularity
-gpgpu_l1_banks_hashing_function                    0 # l1 banks hashing function
-gpgpu_l1_latency                      20 # L1 Hit Latency
-gpgpu_smem_latency                    20 # smem Latency
-gpgpu_cache:dl1PrefL1                 none # per-shader L1 data cache config  {<nsets>:<bsize>:<assoc>,<rep>:<wr>:<alloc>:<wr_alloc>,<mshr>:<N>:<merge>,<mq> | none}
-gpgpu_cache:dl1PrefShared                 none # per-shader L1 data cache config  {<nsets>:<bsize>:<assoc>,<rep>:<wr>:<alloc>:<wr_alloc>,<mshr>:<N>:<merge>,<mq> | none}
-gpgpu_gmem_skip_L1D                    0 # global memory access skip L1D cache (implements -Xptxas -dlcm=cg, default=no skip)
-gpgpu_perfect_mem                      0 # enable perfect memory mode (no cache miss)
-n_regfile_gating_group                    4 # group of lanes that should be read/written together)
-gpgpu_clock_gated_reg_file                    0 # enable clock gated reg file for power calculations
-gpgpu_clock_gated_lanes                    0 # enable clock gated lanes for power calculations
-gpgpu_shader_registers                65536 # Number of registers per shader core. Limits number of concurrent CTAs. (default 8192)
-gpgpu_registers_per_block                65536 # Maximum number of registers per CTA. (default 8192)
-gpgpu_ignore_resources_limitation                    0 # gpgpu_ignore_resources_limitation (default 0)
-gpgpu_shader_cta                      32 # Maximum number of concurrent CTAs in shader (default 32)
-gpgpu_num_cta_barriers                   16 # Maximum number of named barriers per CTA (default 16)
-gpgpu_n_clusters                      40 # number of processing clusters
-gpgpu_n_cores_per_cluster                    2 # number of simd cores per cluster
-gpgpu_n_cluster_ejection_buffer_size                   32 # number of packets in ejection buffer
-gpgpu_n_ldst_response_buffer_size                    2 # number of response packets in ld/st unit ejection buffer
-gpgpu_shmem_per_block                65536 # Size of shared memory per thread block or CTA (default 48kB)
-gpgpu_shmem_size                   98304 # Size of shared memory per shader core (default 16kB)
-gpgpu_shmem_option       0,8,16,32,64,96 # Option list of shared memory sizes
-gpgpu_unified_l1d_size                  128 # Size of unified data cache(L1D + shared memory) in KB
-gpgpu_adaptive_cache_config                    1 # adaptive_cache_config
-gpgpu_shmem_sizeDefault                98304 # Size of shared memory per shader core (default 16kB)
-gpgpu_shmem_size_PrefL1                16384 # Size of shared memory per shader core (default 16kB)
-gpgpu_shmem_size_PrefShared                16384 # Size of shared memory per shader core (default 16kB)
-gpgpu_shmem_num_banks                   32 # Number of banks in the shared memory in each shader core (default 16)
-gpgpu_shmem_limited_broadcast                    0 # Limit shared memory to do one broadcast per cycle (default on)
-gpgpu_shmem_warp_parts                    1 # Number of portions a warp is divided into for shared memory bank conflict check 
-gpgpu_mem_unit_ports                    1 # The number of memory transactions allowed per core cycle
-gpgpu_shmem_warp_parts                    1 # Number of portions a warp is divided into for shared memory bank conflict check 
-gpgpu_warpdistro_shader                   -1 # Specify which shader core to collect the warp size distribution from
-gpgpu_warp_issue_shader                    0 # Specify which shader core to collect the warp issue distribution from
-gpgpu_local_mem_map                    1 # Mapping from local memory space address to simulated GPU physical address space (default = enabled)
-gpgpu_num_reg_banks                    8 # Number of register banks (default = 8)
-gpgpu_reg_bank_use_warp_id                    0 # Use warp ID in mapping registers to banks (default = off)
-gpgpu_sub_core_model                    1 # Sub Core Volta/Pascal model (default = off)
-gpgpu_enable_specialized_operand_collector                    0 # enable_specialized_operand_collector
-gpgpu_operand_collector_num_units_sp                    4 # number of collector units (default = 4)
-gpgpu_operand_collector_num_units_dp                    0 # number of collector units (default = 0)
-gpgpu_operand_collector_num_units_sfu                    4 # number of collector units (default = 4)
-gpgpu_operand_collector_num_units_int                    0 # number of collector units (default = 0)
-gpgpu_operand_collector_num_units_tensor_core                    4 # number of collector units (default = 4)
-gpgpu_operand_collector_num_units_mem                    2 # number of collector units (default = 2)
-gpgpu_operand_collector_num_units_gen                    8 # number of collector units (default = 0)
-gpgpu_operand_collector_num_in_ports_sp                    1 # number of collector unit in ports (default = 1)
-gpgpu_operand_collector_num_in_ports_dp                    0 # number of collector unit in ports (default = 0)
-gpgpu_operand_collector_num_in_ports_sfu                    1 # number of collector unit in ports (default = 1)
-gpgpu_operand_collector_num_in_ports_int                    0 # number of collector unit in ports (default = 0)
-gpgpu_operand_collector_num_in_ports_tensor_core                    1 # number of collector unit in ports (default = 1)
-gpgpu_operand_collector_num_in_ports_mem                    1 # number of collector unit in ports (default = 1)
-gpgpu_operand_collector_num_in_ports_gen                    8 # number of collector unit in ports (default = 0)
-gpgpu_operand_collector_num_out_ports_sp                    1 # number of collector unit in ports (default = 1)
-gpgpu_operand_collector_num_out_ports_dp                    0 # number of collector unit in ports (default = 0)
-gpgpu_operand_collector_num_out_ports_sfu                    1 # number of collector unit in ports (default = 1)
-gpgpu_operand_collector_num_out_ports_int                    0 # number of collector unit in ports (default = 0)
-gpgpu_operand_collector_num_out_ports_tensor_core                    1 # number of collector unit in ports (default = 1)
-gpgpu_operand_collector_num_out_ports_mem                    1 # number of collector unit in ports (default = 1)
-gpgpu_operand_collector_num_out_ports_gen                    8 # number of collector unit in ports (default = 0)
-gpgpu_coalesce_arch                   60 # Coalescing arch (GT200 = 13, Fermi = 20)
-gpgpu_num_sched_per_core                    4 # Number of warp schedulers per core
-gpgpu_max_insn_issue_per_warp                    1 # Max number of instructions that can be issued per warp in one cycle by scheduler (either 1 or 2)
-gpgpu_dual_issue_diff_exec_units                    1 # should dual issue use two different execution unit resources (Default = 1)
-gpgpu_simt_core_sim_order                    1 # Select the simulation order of cores in a cluster (0=Fix, 1=Round-Robin)
-gpgpu_pipeline_widths 4,4,4,4,4,4,4,4,4,4,8,4,4 # Pipeline widths ID_OC_SP,ID_OC_DP,ID_OC_INT,ID_OC_SFU,ID_OC_MEM,OC_EX_SP,OC_EX_DP,OC_EX_INT,OC_EX_SFU,OC_EX_MEM,EX_WB,ID_OC_TENSOR_CORE,OC_EX_TENSOR_CORE
-gpgpu_tensor_core_avail                    1 # Tensor Core Available (default=0)
-gpgpu_num_sp_units                     4 # Number of SP units (default=1)
-gpgpu_num_dp_units                     4 # Number of DP units (default=0)
-gpgpu_num_int_units                    4 # Number of INT units (default=0)
-gpgpu_num_sfu_units                    4 # Number of SF units (default=1)
-gpgpu_num_tensor_core_units                    4 # Number of tensor_core units (default=1)
-gpgpu_num_mem_units                    1 # Number if ldst units (default=1) WARNING: not hooked up to anything
-gpgpu_scheduler                    lwsdp # Scheduler configuration: < lrr | gto | two_level_active > If two_level_active:<num_active_warps>:<inner_prioritization>:<outer_prioritization>For complete list of prioritization values see shader.h enum scheduler_prioritization_typeDefault: gto
-gpgpu_concurrent_kernel_sm                    0 # Support concurrent kernels on a SM (default = disabled)
-gpgpu_perfect_inst_const_cache                    1 # perfect inst and const cache mode, so all inst and const hits in the cache(default = disabled)
-gpgpu_inst_fetch_throughput                    4 # the number of fetched intruction per warp each cycle
-gpgpu_reg_file_port_throughput                    2 # the number ports of the register file
-specialized_unit_1         0,4,4,4,4,BRA # specialized unit config {<enabled>,<num_units>:<latency>:<initiation>,<ID_OC_SPEC>:<OC_EX_SPEC>,<NAME>}
-specialized_unit_2         0,4,4,4,4,BRA # specialized unit config {<enabled>,<num_units>:<latency>:<initiation>,<ID_OC_SPEC>:<OC_EX_SPEC>,<NAME>}
-specialized_unit_3         0,4,4,4,4,BRA # specialized unit config {<enabled>,<num_units>:<latency>:<initiation>,<ID_OC_SPEC>:<OC_EX_SPEC>,<NAME>}
-specialized_unit_4         0,4,4,4,4,BRA # specialized unit config {<enabled>,<num_units>:<latency>:<initiation>,<ID_OC_SPEC>:<OC_EX_SPEC>,<NAME>}
-specialized_unit_5         0,4,4,4,4,BRA # specialized unit config {<enabled>,<num_units>:<latency>:<initiation>,<ID_OC_SPEC>:<OC_EX_SPEC>,<NAME>}
-specialized_unit_6         0,4,4,4,4,BRA # specialized unit config {<enabled>,<num_units>:<latency>:<initiation>,<ID_OC_SPEC>:<OC_EX_SPEC>,<NAME>}
-specialized_unit_7         0,4,4,4,4,BRA # specialized unit config {<enabled>,<num_units>:<latency>:<initiation>,<ID_OC_SPEC>:<OC_EX_SPEC>,<NAME>}
-specialized_unit_8         0,4,4,4,4,BRA # specialized unit config {<enabled>,<num_units>:<latency>:<initiation>,<ID_OC_SPEC>:<OC_EX_SPEC>,<NAME>}
-gpgpu_perf_sim_memcpy                    1 # Fill the L2 cache on memcpy
-gpgpu_simple_dram_model                    0 # simple_dram_model with fixed latency and BW
-gpgpu_dram_scheduler                    1 # 0 = fifo, 1 = FR-FCFS (defaul)
-gpgpu_dram_partition_queues          64:64:64:64 # i2$:$2d:d2$:$2i
-l2_ideal                               0 # Use a ideal L2 cache that always hit
-gpgpu_cache:dl2     S:32:128:24,L:B:m:L:P,A:192:4,32:0,32 # unified banked L2 data cache config  {<nsets>:<bsize>:<assoc>,<rep>:<wr>:<alloc>:<wr_alloc>,<mshr>:<N>:<merge>,<mq>}
-gpgpu_cache:dl2_texture_only                    0 # L2 cache used for texture only
-gpgpu_n_mem                           24 # number of memory modules (e.g. memory controllers) in gpu
-gpgpu_n_sub_partition_per_mchannel                    2 # number of memory subpartition in each memory module
-gpgpu_n_mem_per_ctrlr                    1 # number of memory chips per memory controller
-gpgpu_memlatency_stat                   14 # track and display latency statistics 0x2 enables MC, 0x4 enables queue logs
-gpgpu_frfcfs_dram_sched_queue_size                   64 # 0 = unlimited (default); # entries per chip
-gpgpu_dram_return_queue_size                  192 # 0 = unlimited (default); # entries per chip
-gpgpu_dram_buswidth                   16 # default = 4 bytes (8 bytes per cycle at DDR)
-gpgpu_dram_burst_length                    2 # Burst length of each DRAM request (default = 4 data bus cycle)
-dram_data_command_freq_ratio                    2 # Frequency ratio between DRAM data bus and command bus (default = 2 times, i.e. DDR)
-gpgpu_dram_timing_opt nbk=16:CCD=1:RRD=3:RCD=12:RAS=28:RP=12:RC=40: CL=12:WL=2:CDLR=3:WR=10:nbkgrp=4:CCDL=2:RTPL=3 # DRAM timing parameters = {nbk:tCCD:tRRD:tRCD:tRAS:tRP:tRC:CL:WL:tCDLR:tWR:nbkgrp:tCCDL:tRTPL}
-gpgpu_l2_rop_latency                  160 # ROP queue latency (default 85)
-dram_latency                         100 # DRAM latency (default 30)
-dram_dual_bus_interface                  257 # dual_bus_interface (default = 0) 
-dram_bnk_indexing_policy                    1 # dram_bnk_indexing_policy (0 = normal indexing, 1 = Xoring with the higher bits) (Default = 0)
-dram_bnkgrp_indexing_policy                    1 # dram_bnkgrp_indexing_policy (0 = take higher bits, 1 = take lower bits) (Default = 0)
-dram_seperate_write_queue_enable                    1 # Seperate_Write_Queue_Enable
-dram_write_queue_size           128:108:32 # Write_Queue_Size
-dram_elimnate_rw_turnaround                    0 # elimnate_rw_turnaround i.e set tWTR and tRTW = 0
-icnt_flit_size                        40 # icnt_flit_size
-SST_mode                               0 # SST mode
-gpgpu_mem_addr_mapping dramid@8;00000000.00000000.00000000.00000000.0000RRRR.RRRRRRRR.RBBBCCCB.CCCSSSSS # mapping memory address to dram model {dramid@<start bit>;<memory address map>}
-gpgpu_mem_addr_test                    0 # run sweep test to check address mapping for aliased address
-gpgpu_mem_address_mask                    1 # 0 = old addressing mask, 1 = new addressing mask, 2 = new add. mask + flipped bank sel and chip sel bits
-gpgpu_memory_partition_indexing                    2 # 0 = no indexing, 1 = bitwise xoring, 2 = IPoly, 3 = custom indexing
-accelwattch_xml_file accelwattch_sass_sim.xml # AccelWattch XML file
-power_simulation_enabled                    0 # Turn on power simulator (1=On, 0=Off)
-power_per_cycle_dump                    0 # Dump detailed power output each cycle
-hw_perf_file_name            hw_perf.csv # Hardware Performance Statistics file
-hw_perf_bench_name                       # Kernel Name in Hardware Performance Statistics file
-power_simulation_mode                    0 # Switch performance counter input for power simulation (0=Sim, 1=HW, 2=HW-Sim Hybrid)
-dvfs_enabled                           0 # Turn on DVFS for power model
-aggregate_power_stats                    0 # Accumulate power across all kernels
-accelwattch_hybrid_perfsim_L1_RH                    0 # Get L1 Read Hits for Accelwattch-Hybrid from Accel-Sim
-accelwattch_hybrid_perfsim_L1_RM                    0 # Get L1 Read Misses for Accelwattch-Hybrid from Accel-Sim
-accelwattch_hybrid_perfsim_L1_WH                    0 # Get L1 Write Hits for Accelwattch-Hybrid from Accel-Sim
-accelwattch_hybrid_perfsim_L1_WM                    0 # Get L1 Write Misses for Accelwattch-Hybrid from Accel-Sim
-accelwattch_hybrid_perfsim_L2_RH                    0 # Get L2 Read Hits for Accelwattch-Hybrid from Accel-Sim
-accelwattch_hybrid_perfsim_L2_RM                    0 # Get L2 Read Misses for Accelwattch-Hybrid from Accel-Sim
-accelwattch_hybrid_perfsim_L2_WH                    0 # Get L2 Write Hits for Accelwattch-Hybrid from Accel-Sim
-accelwattch_hybrid_perfsim_L2_WM                    0 # Get L2 Write Misses for Accelwattch-Hybrid from Accel-Sim
-accelwattch_hybrid_perfsim_CC_ACC                    0 # Get Constant Cache Acesses for Accelwattch-Hybrid from Accel-Sim
-accelwattch_hybrid_perfsim_SHARED_ACC                    0 # Get Shared Memory Acesses for Accelwattch-Hybrid from Accel-Sim
-accelwattch_hybrid_perfsim_DRAM_RD                    0 # Get DRAM Reads for Accelwattch-Hybrid from Accel-Sim
-accelwattch_hybrid_perfsim_DRAM_WR                    0 # Get DRAM Writes for Accelwattch-Hybrid from Accel-Sim
-accelwattch_hybrid_perfsim_NOC                    0 # Get Interconnect Acesses for Accelwattch-Hybrid from Accel-Sim
-accelwattch_hybrid_perfsim_PIPE_DUTY                    0 # Get Pipeline Duty Cycle Acesses for Accelwattch-Hybrid from Accel-Sim
-accelwattch_hybrid_perfsim_NUM_SM_IDLE                    0 # Get Number of Idle SMs for Accelwattch-Hybrid from Accel-Sim
-accelwattch_hybrid_perfsim_CYCLES                    0 # Get Executed Cycles for Accelwattch-Hybrid from Accel-Sim
-accelwattch_hybrid_perfsim_VOLTAGE                    0 # Get Chip Voltage for Accelwattch-Hybrid from Accel-Sim
-power_trace_enabled                    0 # produce a file for the power trace (1=On, 0=Off)
-power_trace_zlevel                     6 # Compression level of the power trace output log (0=no comp, 9=highest)
-steady_power_levels_enabled                    0 # produce a file for the steady power levels (1=On, 0=Off)
-steady_state_definition                  8:4 # allowed deviation:number of samples
-gpgpu_max_cycle                        0 # terminates gpu simulation early (0 = no limit)
-gpgpu_max_insn                         0 # terminates gpu simulation early (0 = no limit)
-gpgpu_max_cta                          0 # terminates gpu simulation early (0 = no limit)
-gpgpu_max_completed_cta                    0 # terminates gpu simulation early (0 = no limit)
-gpgpu_runtime_stat                   500 # display runtime statistics such as dram utilization {<freq>:<flag>}
-liveness_message_freq                    1 # Minimum number of seconds between simulation liveness messages (0 = always print)
-gpgpu_compute_capability_major                    7 # Major compute capability version number
-gpgpu_compute_capability_minor                    0 # Minor compute capability version number
-gpgpu_flush_l1_cache                    1 # Flush L1 cache at the end of each kernel call
-gpgpu_flush_l2_cache                    0 # Flush L2 cache at the end of each kernel call
-gpgpu_deadlock_detect                    1 # Stop the simulation at deadlock (1=on (default), 0=off)
-gpgpu_ptx_instruction_classification                    0 # if enabled will classify ptx instruction types per kernel (Max 255 kernels now)
-gpgpu_ptx_sim_mode                     0 # Select between Performance (default) or Functional simulation (1)
-gpgpu_clock_domains 1200.0:1200.0:1200.0:850.0 # Clock Domain Frequencies in MhZ {<Core Clock>:<ICNT Clock>:<L2 Clock>:<DRAM Clock>}
-gpgpu_max_concurrent_kernel                  128 # maximum kernels that can run concurrently on GPU, set this value according to max resident grids for your compute capability
-gpgpu_cflog_interval                    0 # Interval between each snapshot in control flow logger
-visualizer_enabled                     0 # Turn on visualizer output (1=On, 0=Off)
-visualizer_outputfile                 NULL # Specifies the output log file for visualizer
-visualizer_zlevel                      6 # Compression level of the visualizer output log (0=no comp, 9=highest)
-gpgpu_stack_size_limit                 1024 # GPU thread stack size
-gpgpu_heap_size_limit              8388608 # GPU malloc heap size 
-gpgpu_runtime_sync_depth_limit                    2 # GPU device runtime synchronize depth
-gpgpu_runtime_pending_launch_count_limit                 2048 # GPU device runtime pending launch count
-trace_enabled                          0 # Turn on traces
-trace_components                    none # comma seperated list of traces to enable. Complete list found in trace_streams.tup. Default none
-trace_sampling_core                    0 # The core which is printed using CORE_DPRINTF. Default 0
-trace_sampling_memory_partition                   -1 # The memory partition which is printed using MEMPART_DPRINTF. Default -1 (i.e. all)
-enable_ptx_file_line_stats                    1 # Turn on PTX source line statistic profiling. (1 = On)
-ptx_line_stats_filename gpgpu_inst_stats.txt # Output file for PTX source line statistics.
-gpgpu_kernel_launch_latency                    0 # Kernel launch latency in cycles. Default: 0
-gpgpu_cdp_enabled                      0 # Turn on CDP
-gpgpu_TB_launch_latency                    0 # thread block launch latency in cycles. Default: 0
DRAM Timing Options:
nbk                                    16 # number of banks
CCD                                     1 # column to column delay
RRD                              709dbe6b6cf03a26eb8315011e56431c  /workspace/gpgpu-sim_simulations/benchmarks/src/cuda/bin/release/BP
Extracting PTX file and ptxas options    1: BP.1.sm_30.ptx -arch=sm_30
       3 # minimal delay between activation of rows in different banks
RCD                                    12 # row to column delay
RAS                                    28 # time needed to activate row
RP                                     12 # time needed to precharge (deactivate) row
RC                                     40 # row cycle time
CDLR                                    3 # switching from write to read (changes tWTR)
WR                                     10 # last data-in to row precharge
CL                                     12 # CAS latency
WL                                      2 # Write latency
nbkgrp                                  4 # number of bank groups
CCDL                                    2 # column to column delay between accesses to different bank groups
RTPL                                    3 # read to precharge delay between accesses to different bank groups
Total number of memory sub partition = 48
addr_dec_mask[CHIP]  = 0000000000000000 	high:64 low:0
addr_dec_mask[BK]    = 0000000000007100 	high:15 low:8
addr_dec_mask[ROW]   = 000000000fff8000 	high:28 low:15
addr_dec_mask[COL]   = 0000000000000eff 	high:12 low:0
addr_dec_mask[BURST] = 000000000000001f 	high:5 low:0
sub_partition_id_mask = 0000000000000100
GPGPU-Sim uArch: clock freqs: 1200000000.000000:1200000000.000000:1200000000.000000:850000000.000000
GPGPU-Sim uArch: clock periods: 0.00000000083333333333:0.00000000083333333333:0.00000000083333333333:0.00000000117647058824
*** Initializing Memory Statistics ***
GPGPU-Sim uArch: performance model initialization complete.
GPGPU-Sim PTX: __cudaRegisterFatBinary, fat_cubin_handle = 1, filename=default
self exe links to: /workspace/gpgpu-sim_simulations/benchmarks/src/cuda/bin/release/BP
Running md5sum using "md5sum /workspace/gpgpu-sim_simulations/benchmarks/src/cuda/bin/release/BP "
self exe links to: /workspace/gpgpu-sim_simulations/benchmarks/src/cuda/bin/release/BP
Extracting specific PTX file named BP.1.sm_30.ptx 
GPGPU-Sim PTX: __cudaRegisterFunction _Z24bpnn_adjust_weights_cudaPfiS_iS_S_ : hostFun 0x0x5ddf8c001e67, fat_cubin_handle = 1
GPGPU-Sim PTX: Parsing BP.1.sm_30.ptx
GPGPU-Sim PTX: allocating shared region for "_ZZ22bpnn_layerforward_CUDAPfS_S_S_iiE10input_node" from 0x0 to 0x40 (shared memory space)
GPGPU-Sim PTX: allocating shared region for "_ZZ22bpnn_layerforward_CUDAPfS_S_S_iiE13weight_matrix" from 0x80 to 0x480 (shared memory space)
GPGPU-Sim PTX: instruction assembly for function '_Z22bpnn_layerforward_CUDAPfS_S_S_ii'...   done.
GPGPU-Sim PTX: instruction assembly for function '_Z24bpnn_adjust_weights_cudaPfiS_iS_S_'...   done.
GPGPU-Sim PTX: finished parsing EMBEDDED .ptx file BP.1.sm_30.ptx
GPGPU-Sim PTX: loading globals with explicit initializers... 
GPGPU-Sim PTX: finished loading globals (0 bytes total).
GPGPU-Sim PTX: loading constants with explicit initializers...  done.
GPGPU-Sim PTX: Loading PTXInfo from BP.1.sm_30.ptx
GPGPU-Sim PTX: Kernel '_Z24bpnn_adjust_weights_cudaPfiS_iS_S_' : regs=21, lmem=0, smem=0, cmem=376
GPGPU-Sim PTX: Kernel '_Z22bpnn_layerforward_CUDAPfS_S_S_ii' : regs=17, lmem=0, smem=1088, cmem=360
GPGPU-Sim PTX: __cudaRegisterFunction _Z22bpnn_layerforward_CUDAPfS_S_S_ii : hostFun 0x0x5ddf8c001c73, fat_cubin_handle = 1
Random number generator seed: 7
Input layer size : 65536
Starting training kernel
Performing GPU computation
GPGPU-Sim PTX: Setting up arguments for 8 bytes starting at 0x7fff5db1e038..
GPGPU-Sim PTX: Setting up arguments for 8 bytes starting at 0x7fff5db1e030..
GPGPU-Sim PTX: Setting up arguments for 8 bytes starting at 0x7fff5db1e028..
GPGPU-Sim PTX: Setting up arguments for 8 bytes starting at 0x7fff5db1e020..
GPGPU-Sim PTX: Setting up arguments for 4 bytes starting at 0x7fff5db1e01c..
GPGPU-Sim PTX: Setting up arguments for 4 bytes starting at 0x7fff5db1e018..

GPGPU-Sim PTX: cudaLaunch for 0x0x5ddf8c001c73 (mode=performance simulation) on stream 0
GPGPU-Sim PTX: finding reconvergence points for '_Z22bpnn_layerforward_CUDAPfS_S_S_ii'...
GPGPU-Sim PTX: Finding dominators for '_Z22bpnn_layerforward_CUDAPfS_S_S_ii'...
GPGPU-Sim PTX: Finding immediate dominators for '_Z22bpnn_layerforward_CUDAPfS_S_S_ii'...
GPGPU-Sim PTX: Finding postdominators for '_Z22bpnn_layerforward_CUDAPfS_S_S_ii'...
GPGPU-Sim PTX: Finding immediate postdominators for '_Z22bpnn_layerforward_CUDAPfS_S_S_ii'...
GPGPU-Sim PTX: pre-decoding instructions for '_Z22bpnn_layerforward_CUDAPfS_S_S_ii'...
GPGPU-Sim PTX: reconvergence points for _Z22bpnn_layerforward_CUDAPfS_S_S_ii...
GPGPU-Sim PTX:  1 (potential) branch divergence @  PC=0x068 (BP.1.sm_30.ptx:48) @%p2 bra BB0_2;
GPGPU-Sim PTX:    immediate post dominator      @  PC=0x098 (BP.1.sm_30.ptx:57) cvta.to.global.u64 %rd1, %rd4;
GPGPU-Sim PTX:  2 (potential) branch divergence @  PC=0x150 (BP.1.sm_30.ptx:80) @%p3 bra BB0_7;
GPGPU-Sim PTX:    immediate post dominator      @  PC=0x228 (BP.1.sm_30.ptx:115) setp.eq.s32%p1, %r4, 0;
GPGPU-Sim PTX:  3 (potential) branch divergence @  PC=0x1a0 (BP.1.sm_30.ptx:93) @%p4 bra BB0_6;
GPGPU-Sim PTX:    immediate post dominator      @  PC=0x200 (BP.1.sm_30.ptx:108) bar.sync 0;
GPGPU-Sim PTX:  4 (potential) branch divergence @  PC=0x220 (BP.1.sm_30.ptx:112) @%p5 bra BB0_4;
GPGPU-Sim PTX:    immediate post dominator      @  PC=0x228 (BP.1.sm_30.ptx:115) setp.eq.s32%p1, %r4, 0;
GPGPU-Sim PTX:  5 (potential) branch divergence @  PC=0x248 (BP.1.sm_30.ptx:119) @!%p1 bra BB0_9;
GPGPU-Sim PTX:    immediate post dominator      @  PC=0x290 (BP.1.sm_30.ptx:132) ret;
GPGPU-Sim PTX:  6 (potential) branch divergence @  PC=0x250 (BP.1.sm_30.ptx:120) bra.uni BB0_8;
GPGPU-Sim PTX:    immediate post dominator      @  PC=0x258 (BP.1.sm_30.ptx:123) cvta.to.global.u64 %rd10, %rd5;
GPGPU-Sim PTX: ... end of reconvergence points for _Z22bpnn_layerforward_CUDAPfS_S_S_ii
GPGPU-Sim PTX: ... done pre-decoding instructions for '_Z22bpnn_layerforward_CUDAPfS_S_S_ii'.
GPGPU-Sim PTX: pushing kernel '_Z22bpnn_layerforward_CUDAPfS_S_S_ii' to stream 0, gridDim= (1,4096,1) blockDim = (16,16,1) 
GPGPU-Sim uArch: Shader 0 bind to kernel 1 '_Z22bpnn_layerforward_CUDAPfS_S_S_ii'
GPGPU-Sim uArch: CTA/core = 8, limited by: threads
GPGPU-Sim: Reconfigure L1 cache to 112KB
GPGPU-Sim uArch: Shader 2 bind to kernel 1 '_Z22bpnn_layerforward_CUDAPfS_S_S_ii'
GPGPU-Sim uArch: Shader 4 bind to kernel 1 '_Z22bpnn_layerforward_CUDAPfS_S_S_ii'
GPGPU-Sim uArch: Shader 6 bind to kernel 1 '_Z22bpnn_layerforward_CUDAPfS_S_S_ii'
GPGPU-Sim uArch: Shader 8 bind to kernel 1 '_Z22bpnn_layerforward_CUDAPfS_S_S_ii'
GPGPU-Sim uArch: Shader 10 bind to kernel 1 '_Z22bpnn_layerforward_CUDAPfS_S_S_ii'
GPGPU-Sim uArch: Shader 12 bind to kernel 1 '_Z22bpnn_layerforward_CUDAPfS_S_S_ii'
GPGPU-Sim uArch: Shader 14 bind to kernel 1 '_Z22bpnn_layerforward_CUDAPfS_S_S_ii'
GPGPU-Sim uArch: Shader 16 bind to kernel 1 '_Z22bpnn_layerforward_CUDAPfS_S_S_ii'
GPGPU-Sim uArch: Shader 18 bind to kernel 1 '_Z22bpnn_layerforward_CUDAPfS_S_S_ii'
GPGPU-Sim uArch: Shader 20 bind to kernel 1 '_Z22bpnn_layerforward_CUDAPfS_S_S_ii'
GPGPU-Sim uArch: Shader 22 bind to kernel 1 '_Z22bpnn_layerforward_CUDAPfS_S_S_ii'
GPGPU-Sim uArch: Shader 24 bind to kernel 1 '_Z22bpnn_layerforward_CUDAPfS_S_S_ii'
GPGPU-Sim uArch: Shader 26 bind to kernel 1 '_Z22bpnn_layerforward_CUDAPfS_S_S_ii'
GPGPU-Sim uArch: Shader 28 bind to kernel 1 '_Z22bpnn_layerforward_CUDAPfS_S_S_ii'
GPGPU-Sim uArch: Shader 30 bind to kernel 1 '_Z22bpnn_layerforward_CUDAPfS_S_S_ii'
GPGPU-Sim uArch: Shader 32 bind to kernel 1 '_Z22bpnn_layerforward_CUDAPfS_S_S_ii'
GPGPU-Sim uArch: Shader 34 bind to kernel 1 '_Z22bpnn_layerforward_CUDAPfS_S_S_ii'
GPGPU-Sim uArch: Shader 36 bind to kernel 1 '_Z22bpnn_layerforward_CUDAPfS_S_S_ii'
GPGPU-Sim uArch: Shader 38 bind to kernel 1 '_Z22bpnn_layerforward_CUDAPfS_S_S_ii'
GPGPU-Sim uArch: Shader 40 bind to kernel 1 '_Z22bpnn_layerforward_CUDAPfS_S_S_ii'
GPGPU-Sim uArch: Shader 42 bind to kernel 1 '_Z22bpnn_layerforward_CUDAPfS_S_S_ii'
GPGPU-Sim uArch: Shader 44 bind to kernel 1 '_Z22bpnn_layerforward_CUDAPfS_S_S_ii'
GPGPU-Sim uArch: Shader 46 bind to kernel 1 '_Z22bpnn_layerforward_CUDAPfS_S_S_ii'
GPGPU-Sim uArch: Shader 48 bind to kernel 1 '_Z22bpnn_layerforward_CUDAPfS_S_S_ii'
GPGPU-Sim uArch: Shader 50 bind to kernel 1 '_Z22bpnn_layerforward_CUDAPfS_S_S_ii'
GPGPU-Sim uArch: Shader 52 bind to kernel 1 '_Z22bpnn_layerforward_CUDAPfS_S_S_ii'
GPGPU-Sim uArch: Shader 54 bind to kernel 1 '_Z22bpnn_layerforward_CUDAPfS_S_S_ii'
GPGPU-Sim uArch: Shader 56 bind to kernel 1 '_Z22bpnn_layerforward_CUDAPfS_S_S_ii'
GPGPU-Sim uArch: Shader 58 bind to kernel 1 '_Z22bpnn_layerforward_CUDAPfS_S_S_ii'
GPGPU-Sim uArch: Shader 60 bind to kernel 1 '_Z22bpnn_layerforward_CUDAPfS_S_S_ii'
GPGPU-Sim uArch: Shader 62 bind to kernel 1 '_Z22bpnn_layerforward_CUDAPfS_S_S_ii'
GPGPU-Sim uArch: Shader 64 bind to kernel 1 '_Z22bpnn_layerforward_CUDAPfS_S_S_ii'
GPGPU-Sim uArch: Shader 66 bind to kernel 1 '_Z22bpnn_layerforward_CUDAPfS_S_S_ii'
GPGPU-Sim uArch: Shader 68 bind to kernel 1 '_Z22bpnn_layerforward_CUDAPfS_S_S_ii'
GPGPU-Sim uArch: Shader 70 bind to kernel 1 '_Z22bpnn_layerforward_CUDAPfS_S_S_ii'
GPGPU-Sim uArch: Shader 72 bind to kernel 1 '_Z22bpnn_layerforward_CUDAPfS_S_S_ii'
GPGPU-Sim uArch: Shader 74 bind to kernel 1 '_Z22bpnn_layerforward_CUDAPfS_S_S_ii'
GPGPU-Sim uArch: Shader 76 bind to kernel 1 '_Z22bpnn_layerforward_CUDAPfS_S_S_ii'
GPGPU-Sim uArch: Shader 78 bind to kernel 1 '_Z22bpnn_layerforward_CUDAPfS_S_S_ii'
GPGPU-Sim uArch: Shader 1 bind to kernel 1 '_Z22bpnn_layerforward_CUDAPfS_S_S_ii'
GPGPU-Sim uArch: Shader 3 bind to kernel 1 '_Z22bpnn_layerforward_CUDAPfS_S_S_ii'
GPGPU-Sim uArch: Shader 5 bind to kernel 1 '_Z22bpnn_layerforward_CUDAPfS_S_S_ii'
GPGPU-Sim uArch: Shader 7 bind to kernel 1 '_Z22bpnn_layerforward_CUDAPfS_S_S_ii'
GPGPU-Sim uArch: Shader 9 bind to kernel 1 '_Z22bpnn_layerforward_CUDAPfS_S_S_ii'
GPGPU-Sim uArch: Shader 11 bind to kernel 1 '_Z22bpnn_layerforward_CUDAPfS_S_S_ii'
GPGPU-Sim uArch: Shader 13 bind to kernel 1 '_Z22bpnn_layerforward_CUDAPfS_S_S_ii'
GPGPU-Sim uArch: Shader 15 bind to kernel 1 '_Z22bpnn_layerforward_CUDAPfS_S_S_ii'
GPGPU-Sim uArch: Shader 17 bind to kernel 1 '_Z22bpnn_layerforward_CUDAPfS_S_S_ii'
GPGPU-Sim uArch: Shader 19 bind to kernel 1 '_Z22bpnn_layerforward_CUDAPfS_S_S_ii'
GPGPU-Sim uArch: Shader 21 bind to kernel 1 '_Z22bpnn_layerforward_CUDAPfS_S_S_ii'
GPGPU-Sim uArch: Shader 23 bind to kernel 1 '_Z22bpnn_layerforward_CUDAPfS_S_S_ii'
GPGPU-Sim uArch: Shader 25 bind to kernel 1 '_Z22bpnn_layerforward_CUDAPfS_S_S_ii'
GPGPU-Sim uArch: Shader 27 bind to kernel 1 '_Z22bpnn_layerforward_CUDAPfS_S_S_ii'
GPGPU-Sim uArch: Shader 29 bind to kernel 1 '_Z22bpnn_layerforward_CUDAPfS_S_S_ii'
GPGPU-Sim uArch: Shader 31 bind to kernel 1 '_Z22bpnn_layerforward_CUDAPfS_S_S_ii'
GPGPU-Sim uArch: Shader 33 bind to kernel 1 '_Z22bpnn_layerforward_CUDAPfS_S_S_ii'
GPGPU-Sim uArch: Shader 35 bind to kernel 1 '_Z22bpnn_layerforward_CUDAPfS_S_S_ii'
GPGPU-Sim uArch: Shader 37 bind to kernel 1 '_Z22bpnn_layerforward_CUDAPfS_S_S_ii'
GPGPU-Sim uArch: Shader 39 bind to kernel 1 '_Z22bpnn_layerforward_CUDAPfS_S_S_ii'
GPGPU-Sim uArch: Shader 41 bind to kernel 1 '_Z22bpnn_layerforward_CUDAPfS_S_S_ii'
GPGPU-Sim uArch: Shader 43 bind to kernel 1 '_Z22bpnn_layerforward_CUDAPfS_S_S_ii'
GPGPU-Sim uArch: Shader 45 bind to kernel 1 '_Z22bpnn_layerforward_CUDAPfS_S_S_ii'
GPGPU-Sim uArch: Shader 47 bind to kernel 1 '_Z22bpnn_layerforward_CUDAPfS_S_S_ii'
GPGPU-Sim uArch: Shader 49 bind to kernel 1 '_Z22bpnn_layerforward_CUDAPfS_S_S_ii'
GPGPU-Sim uArch: Shader 51 bind to kernel 1 '_Z22bpnn_layerforward_CUDAPfS_S_S_ii'
GPGPU-Sim uArch: Shader 53 bind to kernel 1 '_Z22bpnn_layerforward_CUDAPfS_S_S_ii'
GPGPU-Sim uArch: Shader 55 bind to kernel 1 '_Z22bpnn_layerforward_CUDAPfS_S_S_ii'
GPGPU-Sim uArch: Shader 57 bind to kernel 1 '_Z22bpnn_layerforward_CUDAPfS_S_S_ii'
GPGPU-Sim uArch: Shader 59 bind to kernel 1 '_Z22bpnn_layerforward_CUDAPfS_S_S_ii'
GPGPU-Sim uArch: Shader 61 bind to kernel 1 '_Z22bpnn_layerforward_CUDAPfS_S_S_ii'
GPGPU-Sim uArch: Shader 63 bind to kernel 1 '_Z22bpnn_layerforward_CUDAPfS_S_S_ii'
GPGPU-Sim uArch: Shader 65 bind to kernel 1 '_Z22bpnn_layerforward_CUDAPfS_S_S_ii'
GPGPU-Sim uArch: Shader 67 bind to kernel 1 '_Z22bpnn_layerforward_CUDAPfS_S_S_ii'
GPGPU-Sim uArch: Shader 69 bind to kernel 1 '_Z22bpnn_layerforward_CUDAPfS_S_S_ii'
GPGPU-Sim uArch: Shader 71 bind to kernel 1 '_Z22bpnn_layerforward_CUDAPfS_S_S_ii'
GPGPU-Sim uArch: Shader 73 bind to kernel 1 '_Z22bpnn_layerforward_CUDAPfS_S_S_ii'
GPGPU-Sim uArch: Shader 75 bind to kernel 1 '_Z22bpnn_layerforward_CUDAPfS_S_S_ii'
GPGPU-Sim uArch: Shader 77 bind to kernel 1 '_Z22bpnn_layerforward_CUDAPfS_S_S_ii'
GPGPU-Sim uArch: Shader 79 bind to kernel 1 '_Z22bpnn_layerforward_CUDAPfS_S_S_ii'
Destroy streams for kernel 1: size 0
kernel_name = _Z22bpnn_layerforward_CUDAPfS_S_S_ii 
kernel_launch_uid = 1 
kernel_stream_id = 0
gpu_sim_cycle = 26922
gpu_sim_insn = 104923136
gpu_ipc =    3897.3010
gpu_tot_sim_cycle = 26922
gpu_tot_sim_insn = 104923136
gpu_tot_ipc =    3897.3010
gpu_tot_issued_cta = 4096
gpu_occupancy = 94.1835% 
gpu_tot_occupancy = 94.1835% 
max_total_param_size = 0
gpu_stall_dramfull = 16131
gpu_stall_icnt2sh    = 0
partiton_level_parallism =      13.0827
partiton_level_parallism_total  =      13.0827
partiton_level_parallism_util =      13.8307
partiton_level_parallism_util_total  =      13.8307
L2_BW  =     502.3750 GB/Sec
L2_BW_total  =     502.3750 GB/Sec
gpu_total_sim_rate=267661

========= Core cache stats =========
L1I_cache:
	L1I_total_cache_accesses = 0
	L1I_total_cache_misses = 0
	L1I_total_cache_pending_hits = 0
	L1I_total_cache_reservation_fails = 0
L1D_cache:
	L1D_cache_core[0]: Access = 10094, Miss = 4120, Miss_rate = 0.408, Pending_hits = 1234, Reservation_fails = 3413
	L1D_cache_core[1]: Access = 10094, Miss = 4118, Miss_rate = 0.408, Pending_hits = 1238, Reservation_fails = 3333
	L1D_cache_core[2]: Access = 9898, Miss = 4040, Miss_rate = 0.408, Pending_hits = 1212, Reservation_fails = 3137
	L1D_cache_core[3]: Access = 10094, Miss = 4118, Miss_rate = 0.408, Pending_hits = 1238, Reservation_fails = 3262
	L1D_cache_core[4]: Access = 9996, Miss = 4080, Miss_rate = 0.408, Pending_hits = 1224, Reservation_fails = 3350
	L1D_cache_core[5]: Access = 9800, Miss = 3996, Miss_rate = 0.408, Pending_hits = 1204, Reservation_fails = 3331
	L1D_cache_core[6]: Access = 9996, Miss = 4080, Miss_rate = 0.408, Pending_hits = 1224, Reservation_fails = 3096
	L1D_cache_core[7]: Access = 9996, Miss = 4080, Miss_rate = 0.408, Pending_hits = 1224, Reservation_fails = 3092
	L1D_cache_core[8]: Access = 10094, Miss = 4120, Miss_rate = 0.408, Pending_hits = 1236, Reservation_fails = 3143
	L1D_cache_core[9]: Access = 10094, Miss = 4118, Miss_rate = 0.408, Pending_hits = 1238, Reservation_fails = 3019
	L1D_cache_core[10]: Access = 9898, Miss = 4040, Miss_rate = 0.408, Pending_hits = 1212, Reservation_fails = 3145
	L1D_cache_core[11]: Access = 9800, Miss = 4000, Miss_rate = 0.408, Pending_hits = 1200, Reservation_fails = 3165
	L1D_cache_core[12]: Access = 10290, Miss = 4198, Miss_rate = 0.408, Pending_hits = 1258, Reservation_fails = 3129
	L1D_cache_core[13]: Access = 10192, Miss = 4158, Miss_rate = 0.408, Pending_hits = 1245, Reservation_fails = 2993
	L1D_cache_core[14]: Access = 9898, Miss = 4038, Miss_rate = 0.408, Pending_hits = 1214, Reservation_fails = 3160
	L1D_cache_core[15]: Access = 10584, Miss = 4320, Miss_rate = 0.408, Pending_hits = 1296, Reservation_fails = 3121
	L1D_cache_core[16]: Access = 10094, Miss = 4118, Miss_rate = 0.408, Pending_hits = 1238, Reservation_fails = 3024
	L1D_cache_core[17]: Access = 9800, Miss = 4000, Miss_rate = 0.408, Pending_hits = 1200, Reservation_fails = 3215
	L1D_cache_core[18]: Access = 9996, Miss = 4078, Miss_rate = 0.408, Pending_hits = 1226, Reservation_fails = 3285
	L1D_cache_core[19]: Access = 9898, Miss = 4036, Miss_rate = 0.408, Pending_hits = 1216, Reservation_fails = 3206
	L1D_cache_core[20]: Access = 9996, Miss = 4078, Miss_rate = 0.408, Pending_hits = 1226, Reservation_fails = 2991
	L1D_cache_core[21]: Access = 9800, Miss = 3998, Miss_rate = 0.408, Pending_hits = 1202, Reservation_fails = 3262
	L1D_cache_core[22]: Access = 9996, Miss = 4076, Miss_rate = 0.408, Pending_hits = 1228, Reservation_fails = 3193
	L1D_cache_core[23]: Access = 9898, Miss = 4040, Miss_rate = 0.408, Pending_hits = 1212, Reservation_fails = 3118
	L1D_cache_core[24]: Access = 9996, Miss = 4080, Miss_rate = 0.408, Pending_hits = 1224, Reservation_fails = 3206
	L1D_cache_core[25]: Access = 10192, Miss = 4160, Miss_rate = 0.408, Pending_hits = 1243, Reservation_fails = 3318
	L1D_cache_core[26]: Access = 10094, Miss = 4120, Miss_rate = 0.408, Pending_hits = 1235, Reservation_fails = 3257
	L1D_cache_core[27]: Access = 10192, Miss = 4156, Miss_rate = 0.408, Pending_hits = 1252, Reservation_fails = 3907
	L1D_cache_core[28]: Access = 9898, Miss = 4040, Miss_rate = 0.408, Pending_hits = 1212, Reservation_fails = 2758
	L1D_cache_core[29]: Access = 10192, Miss = 4160, Miss_rate = 0.408, Pending_hits = 1247, Reservation_fails = 3031
	L1D_cache_core[30]: Access = 10192, Miss = 4158, Miss_rate = 0.408, Pending_hits = 1250, Reservation_fails = 3477
	L1D_cache_core[31]: Access = 9898, Miss = 4040, Miss_rate = 0.408, Pending_hits = 1212, Reservation_fails = 3360
	L1D_cache_core[32]: Access = 9996, Miss = 4080, Miss_rate = 0.408, Pending_hits = 1224, Reservation_fails = 2921
	L1D_cache_core[33]: Access = 9996, Miss = 4078, Miss_rate = 0.408, Pending_hits = 1226, Reservation_fails = 2869
	L1D_cache_core[34]: Access = 9898, Miss = 4038, Miss_rate = 0.408, Pending_hits = 1214, Reservation_fails = 3008
	L1D_cache_core[35]: Access = 10290, Miss = 4200, Miss_rate = 0.408, Pending_hits = 1260, Reservation_fails = 3506
	L1D_cache_core[36]: Access = 9996, Miss = 4078, Miss_rate = 0.408, Pending_hits = 1226, Reservation_fails = 3193
	L1D_cache_core[37]: Access = 9898, Miss = 4040, Miss_rate = 0.408, Pending_hits = 1212, Reservation_fails = 3148
	L1D_cache_core[38]: Access = 10290, Miss = 4200, Miss_rate = 0.408, Pending_hits = 1259, Reservation_fails = 3611
	L1D_cache_core[39]: Access = 10094, Miss = 4120, Miss_rate = 0.408, Pending_hits = 1236, Reservation_fails = 3087
	L1D_total_cache_accesses = 401408
	L1D_total_cache_misses = 163796
	L1D_total_cache_miss_rate = 0.4081
	L1D_total_cache_pending_hits = 49177
	L1D_total_cache_reservation_fails = 127840
	L1D_cache_data_port_util = 0.090
	L1D_cache_fill_port_util = 0.074
L1C_cache:
	L1C_total_cache_accesses = 0
	L1C_total_cache_misses = 0
	L1C_total_cache_pending_hits = 0
	L1C_total_cache_reservation_fails = 0
L1T_cache:
	L1T_total_cache_accesses = 0
	L1T_total_cache_misses = 0
	L1T_total_cache_pending_hits = 0
	L1T_total_cache_reservation_fails = 0

Total_core_cache_stats:
	Total_core_cache_stats_breakdown[GLOBAL_ACC_R][HIT] = 19
	Total_core_cache_stats_breakdown[GLOBAL_ACC_R][HIT_RESERVED] = 49177
	Total_core_cache_stats_breakdown[GLOBAL_ACC_R][MISS] = 44991
	Total_core_cache_stats_breakdown[GLOBAL_ACC_R][RESERVATION_FAIL] = 62277
	Total_core_cache_stats_breakdown[GLOBAL_ACC_R][SECTOR_MISS] = 110613
	Total_core_cache_stats_breakdown[GLOBAL_ACC_R][MSHR_HIT] = 49177
	Total_core_cache_stats_breakdown[LOCAL_ACC_R][HIT] = 0
	Total_core_cache_stats_breakdown[LOCAL_ACC_R][HIT_RESERVED] = 0
	Total_core_cache_stats_breakdown[LOCAL_ACC_R][MISS] = 0
	Total_core_cache_stats_breakdown[LOCAL_ACC_R][RESERVATION_FAIL] = 0
	Total_core_cache_stats_breakdown[LOCAL_ACC_R][SECTOR_MISS] = 0
	Total_core_cache_stats_breakdown[LOCAL_ACC_R][MSHR_HIT] = 0
	Total_core_cache_stats_breakdown[CONST_ACC_R][HIT] = 0
	Total_core_cache_stats_breakdown[CONST_ACC_R][HIT_RESERVED] = 0
	Total_core_cache_stats_breakdown[CONST_ACC_R][MISS] = 0
	Total_core_cache_stats_breakdown[CONST_ACC_R][RESERVATION_FAIL] = 0
	Total_core_cache_stats_breakdown[CONST_ACC_R][SECTOR_MISS] = 0
	Total_core_cache_stats_breakdown[CONST_ACC_R][MSHR_HIT] = 0
	Total_core_cache_stats_breakdown[TEXTURE_ACC_R][HIT] = 0
	Total_core_cache_stats_breakdown[TEXTURE_ACC_R][HIT_RESERVED] = 0
	Total_core_cache_stats_breakdown[TEXTURE_ACC_R][MISS] = 0
	Total_core_cache_stats_breakdown[TEXTURE_ACC_R][RESERVATION_FAIL] = 0
	Total_core_cache_stats_breakdown[TEXTURE_ACC_R][SECTOR_MISS] = 0
	Total_core_cache_stats_breakdown[TEXTURE_ACC_R][MSHR_HIT] = 0
	Total_core_cache_stats_breakdown[GLOBAL_ACC_W][HIT] = 188416
	Total_core_cache_stats_breakdown[GLOBAL_ACC_W][HIT_RESERVED] = 0
	Total_core_cache_stats_breakdown[GLOBAL_ACC_W][MISS] = 4088
	Total_core_cache_stats_breakdown[GLOBAL_ACC_W][RESERVATION_FAIL] = 65563
	Total_core_cache_stats_breakdown[GLOBAL_ACC_W][SECTOR_MISS] = 4104
	Total_core_cache_stats_breakdown[GLOBAL_ACC_W][MSHR_HIT] = 0
	Total_core_cache_stats_breakdown[LOCAL_ACC_W][HIT] = 0
	Total_core_cache_stats_breakdown[LOCAL_ACC_W][HIT_RESERVED] = 0
	Total_core_cache_stats_breakdown[LOCAL_ACC_W][MISS] = 0
	Total_core_cache_stats_breakdown[LOCAL_ACC_W][RESERVATION_FAIL] = 0
	Total_core_cache_stats_breakdown[LOCAL_ACC_W][SECTOR_MISS] = 0
	Total_core_cache_stats_breakdown[LOCAL_ACC_W][MSHR_HIT] = 0
	Total_core_cache_stats_breakdown[L1_WRBK_ACC][HIT] = 0
	Total_core_cache_stats_breakdown[L1_WRBK_ACC][HIT_RESERVED] = 0
	Total_core_cache_stats_breakdown[L1_WRBK_ACC][MISS] = 0
	Total_core_cache_stats_breakdown[L1_WRBK_ACC][RESERVATION_FAIL] = 0
	Total_core_cache_stats_breakdown[L1_WRBK_ACC][SECTOR_MISS] = 0
	Total_core_cache_stats_breakdown[L1_WRBK_ACC][MSHR_HIT] = 0
	Total_core_cache_stats_breakdown[L2_WRBK_ACC][HIT] = 0
	Total_core_cache_stats_breakdown[L2_WRBK_ACC][HIT_RESERVED] = 0
	Total_core_cache_stats_breakdown[L2_WRBK_ACC][MISS] = 0
	Total_core_cache_stats_breakdown[L2_WRBK_ACC][RESERVATION_FAIL] = 0
	Total_core_cache_stats_breakdown[L2_WRBK_ACC][SECTOR_MISS] = 0
	Total_core_cache_stats_breakdown[L2_WRBK_ACC][MSHR_HIT] = 0
	Total_core_cache_stats_breakdown[INST_ACC_R][HIT] = 0
	Total_core_cache_stats_breakdown[INST_ACC_R][HIT_RESERVED] = 0
	Total_core_cache_stats_breakdown[INST_ACC_R][MISS] = 0
	Total_core_cache_stats_breakdown[INST_ACC_R][RESERVATION_FAIL] = 0
	Total_core_cache_stats_breakdown[INST_ACC_R][SECTOR_MISS] = 0
	Total_core_cache_stats_breakdown[INST_ACC_R][MSHR_HIT] = 0
	Total_core_cache_stats_breakdown[L1_WR_ALLOC_R][HIT] = 0
	Total_core_cache_stats_breakdown[L1_WR_ALLOC_R][HIT_RESERVED] = 0
	Total_core_cache_stats_breakdown[L1_WR_ALLOC_R][MISS] = 0
	Total_core_cache_stats_breakdown[L1_WR_ALLOC_R][RESERVATION_FAIL] = 0
	Total_core_cache_stats_breakdown[L1_WR_ALLOC_R][SECTOR_MISS] = 0
	Total_core_cache_stats_breakdown[L1_WR_ALLOC_R][MSHR_HIT] = 0
	Total_core_cache_stats_breakdown[L2_WR_ALLOC_R][HIT] = 0
	Total_core_cache_stats_breakdown[L2_WR_ALLOC_R][HIT_RESERVED] = 0
	Total_core_cache_stats_breakdown[L2_WR_ALLOC_R][MISS] = 0
	Total_core_cache_stats_breakdown[L2_WR_ALLOC_R][RESERVATION_FAIL] = 0
	Total_core_cache_stats_breakdown[L2_WR_ALLOC_R][SECTOR_MISS] = 0
	Total_core_cache_stats_breakdown[L2_WR_ALLOC_R][MSHR_HIT] = 0
	Total_core_cache_stats_breakdown[GLOBAL_ACC_R][TOTAL_ACCESS] = 204800
	Total_core_cache_stats_breakdown[GLOBAL_ACC_W][TOTAL_ACCESS] = 196608

Total_core_cache_fail_stats:
	Total_core_cache_fail_stats_breakdown[GLOBAL_ACC_R][MISS_QUEUE_FULL] = 62277
	Total_core_cache_fail_stats_breakdown[GLOBAL_ACC_W][MISS_QUEUE_FULL] = 65563
ctas_completed 4096, Shader 0 warp_id issue ditsribution:
warp_id:
0, 1, 2, 3, 4, 5, 6, 7, 8, 9, 10, 11, 12, 13, 14, 15, 16, 17, 18, 19, 20, 21, 22, 23, 24, 25, 26, 27, 28, 29, 30, 31, 32, 33, 34, 35, 36, 37, 38, 39, 40, 41, 42, 43, 44, 45, 46, 47, 48, 49, 50, 51, 52, 53, 54, 55, 56, 57, 58, 59, 60, 61, 62, 63, 
distro:
1043, 812, 889, 812, 966, 812, 889, 812, 1043, 812, 889, 812, 966, 812, 889, 812, 894, 696, 762, 696, 828, 696, 762, 696, 1043, 812, 889, 812, 966, 812, 889, 812, 894, 696, 762, 696, 828, 696, 762, 696, 894, 696, 762, 696, 828, 696, 762, 696, 894, 696, 762, 696, 828, 696, 762, 696, 894, 696, 762, 696, 828, 696, 762, 696, 
gpgpu_n_tot_thrd_icount = 131727360
gpgpu_n_tot_w_icount = 4116480
gpgpu_n_stall_shd_mem = 65947
gpgpu_n_mem_read_local = 0
gpgpu_n_mem_write_local = 0
gpgpu_n_mem_read_global = 155604
gpgpu_n_mem_write_global = 196608
gpgpu_n_mem_texture = 0
gpgpu_n_mem_const = 0
gpgpu_n_load_insn  = 1114112
gpgpu_n_store_insn = 1114112
gpgpu_n_shmem_insn = 8323072
gpgpu_n_sstarr_insn = 0
gpgpu_n_tex_insn = 0
gpgpu_n_const_mem_insn = 0
gpgpu_n_param_mem_insn = 4194304
gpgpu_n_shmem_bkconflict = 0
gpgpu_n_l1cache_bkconflict = 423
gpgpu_n_intrawarp_mshr_merge = 0
gpgpu_n_cmem_portconflict = 0
gpgpu_stall_shd_mem[c_mem][resource_stall] = 0
gpgpu_stall_shd_mem[s_mem][bk_conf] = 0
gpgpu_stall_shd_mem[gl_mem][resource_stall] = 423
gpgpu_stall_shd_mem[gl_mem][coal_stall] = 65524
gpgpu_stall_shd_mem[gl_mem][data_port_stall] = 0
gpu_reg_bank_conflict_stalls = 0
Warp Occupancy Distribution:
Stall:819835	W0_Idle:98116	W0_Scoreboard:3348897	W1:0	W2:425984	W3:0	W4:0	W5:0	W6:0	W7:0	W8:0	W9:0	W10:0	W11:0	W12:0	W13:0	W14:0	W15:0	W16:675840	W17:0	W18:0	W19:0	W20:0	W21:0	W22:0	W23:0	W24:0	W25:0	W26:0	W27:0	W28:0	W29:0	W30:0	W31:0	W32:3014656
single_issue_nums: WS0:1175552	WS1:950272	WS2:1040384	WS3:950272	
dual_issue_nums: WS0:0	WS1:0	WS2:0	WS3:0	
traffic_breakdown_coretomem[GLOBAL_ACC_R] = 1244832 {8:155604,}
traffic_breakdown_coretomem[GLOBAL_ACC_W] = 7864320 {40:196608,}
traffic_breakdown_memtocore[GLOBAL_ACC_R] = 6224160 {40:155604,}
traffic_breakdown_memtocore[GLOBAL_ACC_W] = 1572864 {8:196608,}
maxmflatency = 1600 
max_icnt2mem_latency = 1048 
maxmrqlatency = 5386 
max_icnt2sh_latency = 328 
averagemflatency = 358 
avg_icnt2mem_latency = 119 
avg_mrq_latency = 145 
avg_icnt2sh_latency = 21 
mrq_lat_table:12341 	13442 	8607 	7230 	9125 	8886 	3289 	1200 	2451 	5291 	2007 	702 	49 	0 	0 	0 	0 	0 	0 	0 	0 	0 	0 	0 	0 	0 	0 	0 	0 	0 	0 	0 	
dq_lat_table:0 	0 	0 	0 	0 	0 	0 	0 	0 	0 	0 	0 	0 	0 	0 	0 	0 	0 	0 	0 	0 	0 	0 	0 	0 	0 	0 	0 	0 	0 	0 	0 	
mf_lat_table:0 	0 	0 	0 	0 	0 	0 	150650 	148591 	45109 	7862 	0 	0 	0 	0 	0 	0 	0 	0 	0 	0 	0 	0 	0 	0 	0 	0 	0 	0 	0 	0 	0 	
icnt2mem_lat_table:0 	0 	0 	0 	51554 	115337 	85029 	61822 	28469 	9973 	28 	0 	0 	0 	0 	0 	0 	0 	0 	0 	0 	0 	0 	0 	
icnt2sh_lat_table:0 	118171 	57456 	50714 	50719 	44335 	23934 	6362 	521 	0 	0 	0 	0 	0 	0 	0 	0 	0 	0 	0 	0 	0 	0 	0 	
mf_lat_pw_table:0 	0 	0 	0 	0 	0 	0 	8 	40 	3 	0 	0 	0 	0 	0 	0 	0 	0 	0 	0 	0 	0 	0 	0 	0 	0 	0 	0 	0 	0 	0 	0 	
maximum concurrent accesses to same row:
dram[0]:        68        68        88        67        96        96        86        87        75        65        87       103        88        88        88        83 
dram[1]:        77        72        88        80        96        96        67        80        64        64        97        85        88        91        80       106 
dram[2]:        76        72        88        69        96        96        79       107       106        64        95       103        95        88        84        64 
dram[3]:        79        78        88        70        96        96        81       103        67        81        96       102       109        88        74        69 
dram[4]:        72        75        88        64        96        96        84        88        95        64        90        76        88        88        99        77 
dram[5]:        72        72        88        69        96        96        87        90        64       106        99        87        88        88       107        72 
dram[6]:        72        72        88        64        96        96        88        88        84       103        86       100        88        88        92        88 
dram[7]:        78        72        88        67        96        96        89        90        81        85       107        87        99        98        85        70 
dram[8]:         0         0        24        24        32        32        32        32        32        32        32        32        16        16         0         0 
dram[9]:         0         0        24        24        32        32        32        32        32        32        32        32        16        16         0         0 
dram[10]:         0         0        24        24        32        32        32        32        32        32        32        32        16        16         0         0 
dram[11]:         0         0        24        24        32        32        32        32        32        32        32        32        16        16         0         0 
dram[12]:         0         0        24        24        32        32        32        32        32        32        32        32        16        16         0         0 
dram[13]:         0         0        24        24        32        32        32        32        32        32        32        32        16        16         0         0 
dram[14]:         0         0        24        20        32        32        32        32        32        32        32        32        16        16         0         0 
dram[15]:         0         0        24        24        32        32        32        32        32        32        32        32        16        12         0         0 
dram[16]:         0         0        24        16        32        32        32        32        32        32        32        32        24        16         0         0 
dram[17]:         0         0        24        16        32        32        32        32        32        32        32        32        24        16         0         0 
dram[18]:         0         0        24        16        32        32        32        32        32        32        32        32        24        16         0         0 
dram[19]:         0         0        24        18        32        32        32        32        32        32        32        32        20        16         0         0 
dram[20]:         0         0        24        16        32        32        32        32        32        32        32        32        16        24         0         0 
dram[21]:         0         0        24        18        32        32        32        32        32        32        32        32        16        24         0         0 
dram[22]:         0         0        24        16        32        32        32        28        32        32        32        32        24        24         0         0 
dram[23]:         0         0        24        17        32        32        32        32        32        32        32        32        24        20         0         0 
maximum service time to same row:
dram[0]:      3741      4817      4252      4036      4633      4632      4101      4095      4377      4502      3986      3915      4707      4611      4256      4403 
dram[1]:      4597      3486      4294      4007      4623      4677      4085      4137      4212      4478      4186      3982      4714      4533      4255      4315 
dram[2]:      4626      3473      4250      4110      4636      4571      4070      4102      4366      4473      4120      3975      4626      4641      4223      4481 
dram[3]:      4635      4657      4055      4187      4625      4536      4100      4090      4376      4492      4147      4159      4620      4596      4212      4485 
dram[4]:      3735      4750      4363      3982      4596      4536      4078      4067      4437      4400      4478      4320      4570      4625      4433      4233 
dram[5]:      3698      3528      4192      3967      4611      4575      4106      4096      4348      4409      4060      4029      4761      4665      4485      4222 
dram[6]:      3716      3498      4271      4077      4516      4544      4145      4038      4310      4507      4565      4018      4542      4785      4324      4399 
dram[7]:      4635      3767      4204      4051      4571      4514      4113      4044      4292      4437      4126      4026      4548      4790      4417      4216 
dram[8]:     11639     11571      8546      9037     14974     14971     15379     15311     18025     18524     18819     18934     10208     10296     13960     14004 
dram[9]:         0         0      8585      9048     14977     14986     15397     15313     18010     18521     18812     18932     10210     10299     14015     14000 
dram[10]:     11615     11549      8588      9084     14991     14897     15394     15329     18013     18547     18807     19001     10333     10409     14002     14118 
dram[11]:     11628     11546      8646      9032     14986     14903     15385     15315     18030     18540     18807     18955     10210     10416     14002     14101 
dram[12]:     11619     11600      8646      9101     15017     14913     15366     15359     18034     18538     18872     18952     10356     10328     13980     13858 
dram[13]:     11605     11550      8660      9080     14893     14897     15368     15332     18005     18589     18874     18938     10346     10325     13971     13853 
dram[14]:     11601     11576      8796      9128     14890     14974     15393     15363     18025     18579     18857     18718     10244     10309     13952     14127 
dram[15]:     11616     11590      8736      9099     14897     14910     15229     15368     18019     18595     18846     18706     10258     10315     13957     14206 
dram[16]:         0         0      8327      8900     14913     14950     15229     15400     17931     18547     18856     18699     10208     10092     14031     14087 
dram[17]:         0         0      8374      9039     14903     14964     15239     15373     17923     18545     18873     18730     10222     10088     14046     14036 
dram[18]:         0         0      8453      8938     14902     14945     15246     15434     17924     18527     18781     18922     10035     10138     14022     14050 
dram[19]:         0         0      8432      8958     14921     14941     15255     15418     17921     18536     18802     18721     10076     10104     14022     14050 
dram[20]:     11710         0      8540      8998     14929     15094     15294     15363     17916     18543     18802     18928     10058     10138     14011     13964 
dram[21]:     11684         0      8561      8960     14930     15101     15298     15434     17907     18520     18801     18941     10041     10383     14049     13971 
dram[22]:     11688         0      8540      9009     14948     14974     15308     15373     17900     18634     18794     18908     10080     10391     14036     13978 
dram[23]:     11633     11546      8566      8974     14941     14978     15321     15361     18036     18697     18767     18922     10055     10387     14032     13974 
average row accesses per activate:
dram[0]: 31.071428 43.099998 36.769230 26.888889 33.066666 41.083332 32.937500 37.285713 49.500000 49.599998 38.153847 45.090908 37.230770 40.666668 35.846153 38.666668 
dram[1]: 31.500000 44.000000 28.352942 26.888889 27.333334 32.733334 30.823530 37.357143 45.090908 49.599998 45.090908 41.333332 40.333332 40.666668 38.833332 46.400002 
dram[2]: 31.285715 43.799999 37.384617 26.888889 31.000000 40.666668 37.357143 40.153847 55.111111 49.599998 45.090908 45.090908 34.714287 43.818180 35.846153 35.846153 
dram[3]: 36.250000 39.636364 34.428570 25.578947 33.066666 37.692307 31.058823 40.076923 45.000000 45.090908 41.333332 49.599998 40.333332 37.307693 38.916668 39.000000 
dram[4]: 33.384617 43.400002 37.230770 24.299999 27.555555 32.733334 34.799999 35.000000 45.090908 49.599998 44.727272 49.599998 44.363636 34.357143 38.916668 36.000000 
dram[5]: 27.375000 43.299999 37.153847 27.000000 27.500000 28.705883 30.823530 40.076923 49.599998 55.111111 41.333332 45.090908 37.538460 40.000000 42.454544 36.076923 
dram[6]: 31.142857 43.500000 37.307693 25.526316 30.687500 32.666668 31.294117 35.066666 49.599998 55.111111 45.090908 38.153847 34.714287 37.076923 36.000000 35.846153 
dram[7]: 33.615383 39.636364 32.266666 26.888889 41.000000 32.533333 33.062500 37.428570 49.599998 45.090908 41.333332 45.090908 40.666668 40.166668 39.000000 36.000000 
dram[8]:  4.000000  4.000000 18.666666 18.666666 32.000000 32.000000 32.000000 32.000000 32.000000 32.000000 32.000000 32.000000 24.000000 22.000000 32.000000 32.000000 
dram[9]:      -nan      -nan 18.666666 18.666666 32.000000 32.000000 32.000000 32.000000 32.000000 32.000000 32.000000 32.000000 24.000000 22.000000 32.000000 32.000000 
dram[10]:  4.000000  4.000000 18.666666 18.666666 32.000000 32.000000 32.000000 32.000000 32.000000 32.000000 32.000000 32.000000 24.000000 24.000000 32.000000 32.000000 
dram[11]:  4.000000  4.000000 18.666666 18.666666 32.000000 32.000000 32.000000 32.000000 32.000000 32.000000 32.000000 32.000000 24.000000 24.000000 32.000000 32.000000 
dram[12]:  8.000000  8.000000 18.666666 18.666666 32.000000 32.000000 32.000000 32.000000 32.000000 32.000000 32.000000 32.000000 20.000000 22.000000 32.000000 32.000000 
dram[13]:  4.000000  8.000000 18.666666 18.666666 32.000000 32.000000 32.000000 32.000000 32.000000 32.000000 32.000000 32.000000 20.000000 24.000000 32.000000 32.000000 
dram[14]:  8.000000  8.000000 18.666666 11.200000 32.000000 32.000000 32.000000 32.000000 32.000000 32.000000 32.000000 32.000000 20.000000 24.000000 32.000000 32.000000 
dram[15]:  8.000000  8.000000 18.666666 18.666666 32.000000 32.000000 32.000000 32.000000 32.000000 32.000000 32.000000 32.000000 20.000000 22.000000 32.000000 32.000000 
dram[16]:      -nan      -nan 18.666666 11.200000 32.000000 32.000000 32.000000 32.000000 32.000000 32.000000 32.000000 32.000000 22.000000 22.000000 32.000000 32.000000 
dram[17]:      -nan      -nan 18.666666 11.200000 32.000000 32.000000 32.000000 32.000000 32.000000 32.000000 32.000000 32.000000 24.000000 20.000000 32.000000 32.000000 
dram[18]:      -nan      -nan 18.666666 11.200000 32.000000 32.000000 32.000000 32.000000 32.000000 32.000000 32.000000 32.000000 24.000000 20.000000 32.000000 32.000000 
dram[19]:      -nan      -nan 18.666666 11.200000 32.000000 32.000000 32.000000 32.000000 32.000000 32.000000 32.000000 32.000000 22.000000 20.000000 32.000000 32.000000 
dram[20]:  4.000000      -nan 18.666666 11.200000 32.000000 32.000000 32.000000 32.000000 32.000000 32.000000 32.000000 32.000000 20.000000 24.000000 32.000000 32.000000 
dram[21]:  8.000000      -nan 18.666666 11.200000 32.000000 32.000000 32.000000 32.000000 32.000000 32.000000 32.000000 32.000000 20.000000 24.000000 32.000000 32.000000 
dram[22]:  4.000000      -nan 18.666666 11.200000 32.000000 32.000000 32.000000 30.000000 32.000000 32.000000 32.000000 32.000000 22.000000 24.000000 32.000000 32.000000 
dram[23]:  8.000000  4.000000 18.666666  8.000000 32.000000 32.000000 32.000000 32.000000 32.000000 32.000000 32.000000 32.000000 24.000000 22.000000 32.000000 32.000000 
average row locality = 74620/2161 = 34.530312
number of total memory accesses made:
dram[0]:         0         0         0         0         0         0         0         0         0         0         0         0         0         0         0         0 
dram[1]:         0         0         0         0         0         0         0         0         0         0         0         0         0         0         0         0 
dram[2]:         0         0         0         0         0         0         0         0         0         0         0         0         0         0         0         0 
dram[3]:         0         0         0         0         0         0         0         0         0         0         0         0         0         0         0         0 
dram[4]:         0         0         0         0         0         0         0         0         0         0         0         0         0         0         0         0 
dram[5]:         0         0         0         0         0         0         0         0         0         0         0         0         0         0         0         0 
dram[6]:         0         0         0         0         0         0         0         0         0         0         0         0         0         0         0         0 
dram[7]:         0         0         0         0         0         0         0         0         0         0         0         0         0         0         0         0 
dram[8]:         0         0         0         0         0         0         0         0         0         0         0         0         0         0         0         0 
dram[9]:         0         0         0         0         0         0         0         0         0         0         0         0         0         0         0         0 
dram[10]:         0         0         0         0         0         0         0         0         0         0         0         0         0         0         0         0 
dram[11]:         0         0         0         0         0         0         0         0         0         0         0         0         0         0         0         0 
dram[12]:         0         0         0         0         0         0         0         0         0         0         0         0         0         0         0         0 
dram[13]:         0         0         0         0         0         0         0         0         0         0         0         0         0         0         0         0 
dram[14]:         0         0         0         0         0         0         0         0         0         0         0         0         0         0         0         0 
dram[15]:         0         0         0         0         0         0         0         0         0         0         0         0         0         0         0         0 
dram[16]:         0         0         0         0         0         0         0         0         0         0         0         0         0         0         0         0 
dram[17]:         0         0         0         0         0         0         0         0         0         0         0         0         0         0         0         0 
dram[18]:         0         0         0         0         0         0         0         0         0         0         0         0         0         0         0         0 
dram[19]:         0         0         0         0         0         0         0         0         0         0         0         0         0         0         0         0 
dram[20]:         0         0         0         0         0         0         0         0         0         0         0         0         0         0         0         0 
dram[21]:         0         0         0         0         0         0         0         0         0         0         0         0         0         0         0         0 
dram[22]:         0         0         0         0         0         0         0         0         0         0         0         0         0         0         0         0 
dram[23]:         0         0         0         0         0         0         0         0         0         0         0         0         0         0         0         0 
total accesses: 0
min_bank_accesses = 0!
min_chip_accesses = 0!
number of total read accesses:
dram[0]:       472       472       484       484       384       384       384       384       384       384       384       384       480       480       504       504 
dram[1]:       472       472       488       488       384       384       384       384       384       384       384       384       480       480       504       504 
dram[2]:       472       472       488       488       384       384       384       384       384       384       384       384       480       480       500       504 
dram[3]:       472       472       488       488       384       384       384       384       384       384       384       384       480       480       504       504 
dram[4]:       475       472       488       488       384       384       384       384       384       384       384       384       480       480       500       500 
dram[5]:       472       472       488       488       384       384       384       384       384       384       384       384       480       480       500       504 
dram[6]:       480       472       488       488       384       384       384       384       384       384       384       384       480       480       500       504 
dram[7]:       480       472       488       488       384       384       384       384       384       384       384       384       480       480       500       504 
dram[8]:        88        88       100       100         0         0         0         0         0         0         0         0        96        96       108       112 
dram[9]:        88        88        96        96         0         0         0         0         0         0         0         0        96        96       108       112 
dram[10]:        88        88       100       100         0         0         0         0         0         0         0         0        96        96       112       112 
dram[11]:        88        88       100       100         0         0         0         0         0         0         0         0        96        96       112       112 
dram[12]:        88        88       104       104         0         0         0         0         0         0         0         0        96        96       108       104 
dram[13]:        88        88       104       100         0         0         0         0         0         0         0         0        96        96       112       104 
dram[14]:        88        88       104       104         0         0         0         0         0         0         0         0        96        96       112       104 
dram[15]:        88        88       104       104         0         0         0         0         0         0         0         0        96        96       112       100 
dram[16]:        88        88        96        96         0         0         0         0         0         0         0         0        96        96       116       100 
dram[17]:        88        88        96        96         0         0         0         0         0         0         0         0        96        96       112       104 
dram[18]:        88        88        96        96         0         0         0         0         0         0         0         0        96        96       112       104 
dram[19]:        88        88        96        96         0         0         0         0         0         0         0         0        96        96       108       104 
dram[20]:        88        88        96       100         0         0         0         0         0         0         0         0        96        96       104       112 
dram[21]:        88        88        96       104         0         0         0         0         0         0         0         0        96        96       104       112 
dram[22]:        88        88        96        96         0         0         0         0         0         0         0         0        96        96       112       108 
dram[23]:        88        88       100       104         0         0         0         0         0         0         0         0        96        96       112       108 
total dram reads = 68211
min_bank_accesses = 0!
chip skew: 6964/772 = 9.02
number of total write accesses:
dram[0]:       264       272       192       192       192       192       272       256       192       192       192       200       192       192       184       192 
dram[1]:       264       280       192       192       192       192       272       256       192       192       192       200       192       192       184       192 
dram[2]:       264       272       192       192       192       192       264       264       192       192       192       200       192       192       192       192 
dram[3]:       272       260       192       192       192       192       272       256       192       192       192       200       192       192       188       196 
dram[4]:       264       256       192       192       192       192       272       264       192       192       192       192       192       192       204       196 
dram[5]:       272       248       192       192       192       192       272       264       192       192       192       192       192       192       204       196 
dram[6]:       260       268       192       192       192       192       272       264       192       192       192       192       192       192       200       192 
dram[7]:       248       264       192       192       192       192       268       268       192       192       192       192       192       192       208       200 
dram[8]:        16        12         0         0         0         0        12        12         0         0         0         0         0         0        12        24 
dram[9]:        12        12         0         0         0         0         8        16         0         0         0         0         0         0        16        24 
dram[10]:        20        16         0         0         0         0         0        16         0         0         8         0         0         0        12        16 
dram[11]:        12        12         0         0         0         0         0        16         0         0         8         0         0         0        16        24 
dram[12]:        32         8         0         0         0         0         8         8         0         0         8         0         0         0         0        24 
dram[13]:        32         8         0         0         0         0         8         8         0         0         8         0         0         0         4        20 
dram[14]:        20         8         0         0         0         0         8         8         0         0         8         0         0         0        12        24 
dram[15]:        36         8         0         0         0         0         8         8         0         0         8         0         0         0         0        20 
dram[16]:        28        16         0         0         0         0         0        16         0         0         8         0         0         0        12         8 
dram[17]:        32         8         0         0         0         0         8         8         0         0         8         0         0         0        20         4 
dram[18]:        16        12         0         0         0         0         0         8         0         0         8         0         0         0        20        16 
dram[19]:        24         8         0         0         0         0         8         8         0         0         0         0         0         0        16        16 
dram[20]:        24        16         0         0         0         0         4         8         0         0         0         4         0         0        16         8 
dram[21]:        20        20         0         0         0         0         0         8         0         0         0         8         0         0        16         8 
dram[22]:        24        24         0         0         0         0         4         8         0         0         0         4         0         0         8         8 
dram[23]:        24        24         0         0         0         0         8         8         0         0         0         0         0         0         8         8 
total dram writes = 28356
min_bank_accesses = 0!
chip skew: 3376/80 = 42.20
average mf latency per bank:
dram[0]:        940       926       987       956       905       921       731       733       907       883       958       863       810       837       900       906
dram[1]:        934       901      1010      1024       977       937       722       709       890       901       955       890       871       876       902       873
dram[2]:        941       948       952       957       962       922       689       719       892       868       872       836       844       828       878       888
dram[3]:        965       977      1029      1047       993       955       722       751       915       924       958       954       882       841       875       930
dram[4]:        970       968      1024       992       969       918       676       689       907       897       924       864       814       839       884       926
dram[5]:        959       970       992      1018       925       922       690       681       866       834       874       879       859       851       855       880
dram[6]:        920       967       960       936       930       920       669       707       892       873       875       875       787       813       843       904
dram[7]:        974       926       999      1011       989       946       719       743       957       925       979      1000       839       842       829       902
dram[8]:       2574      2779      2335      2349    none      none       14646     15738    none      none      none      none        1989      1944      2152      1835
dram[9]:       2738      2769      2418      2418    none      none       22806     11846    none      none      none      none        1873      1907      2077      1846
dram[10]:       2334      2577      2288      2188    none      none      none       12222    none      none       18534    none        1855      1827      1963      1958
dram[11]:       2734      2776      2285      2274    none      none      none       12133    none      none       19020    none        1861      1942      1988      1925
dram[12]:       2229      2694      2097      2138    none      none       24095     23030    none      none       18316    none        1977      1835      2420      1890
dram[13]:       2297      2793      2111      2162    none      none       22723     22498    none      none       18692    none        1920      1903      2321      2079
dram[14]:       2552      2711      2199      2219    none      none       23583     23312    none      none       18910    none        2105      1872      2084      1904
dram[15]:       2259      2843      2312      2148    none      none       22839     24063    none      none       18881    none        2015      1853      2352      2150
dram[16]:       2208      2459      2197      2392    none      none      none        8900    none      none       26465    none        2457      2493      1508      1691
dram[17]:       2063      2774      2336      2258    none      none       18454     18586    none      none       26874    none        2438      2449      1488      1750
dram[18]:       2344      2582      2343      2312    none      none      none       18134    none      none       25589    none        2462      2379      1415      1562
[...]
n_activity=24461 dram_eff=0.3878
bk0: 368a 50334i bk1: 380a 50066i bk2: 427a 49979i bk3: 432a 49859i bk4: 416a 50119i bk5: 416a 50228i bk6: 416a 49945i bk7: 416a 50139i bk8: 448a 49773i bk9: 448a 49833i bk10: 448a 50017i bk11: 448a 49871i bk12: 428a 49970i bk13: 420a 49919i bk14: 416a 49943i bk15: 416a 49828i 

------------------------------------------------------------------------

Row_Buffer_Locality = 0.923408
Row_Buffer_Locality_read = 0.939493
Row_Buffer_Locality_write = 0.765306
Bank_Level_Parallism = 3.465452
Bank_Level_Parallism_Col = 3.291468
Bank_Level_Parallism_Ready = 3.167282
write_to_read_ratio_blp_rw_average = 0.185871
GrpLevelPara = 1.785384 

BW Util details:
bwutil = 0.177819 
total_CMD = 53352 
util_bw = 9487 
Wasted_Col = 5837 
Wasted_Row = 2347 
Idle = 35681 

BW Util Bottlenecks: 
RCDc_limit = 3389 
RCDWRc_limit = 125 
WTRc_limit = 158 
RTWc_limit = 137 
CCDLc_limit = 3406 
rwq = 0 
CCDLc_limit_alone = 3398 
WTRc_limit_alone = 150 
RTWc_limit_alone = 137 

Commands details: 
total_CMD = 53352 
n_nop = 43206 
Read = 6743 
Write = 0 
L2_Alloc = 0 
L2_WB = 2744 
n_act = 617 
n_pre = 601 
n_ref = 0 
n_req = 7463 
total_req = 9487 

Dual Bus Interface Util: 
issued_total_row = 1218 
issued_total_col = 9487 
Row_Bus_Util =  0.022830 
CoL_Bus_Util = 0.177819 
Either_Row_CoL_Bus_Util = 0.190171 
Issued_on_Two_Bus_Simul_Util = 0.010478 
issued_two_Eff = 0.055096 
queue_avg = 2.920696 


dram_util_bins: 0 0 0 0 0 0 0 0 0 0
dram_eff_bins: 0 0 0 0 0 0 0 0 0 0
mrqq: max=64 avg=2.9207
Memory Partition 20: 
Cache L2_bank_040:
MSHR contents

Cache L2_bank_041:
MSHR contents

In Dram Latency Queue (total = 0): 
DRAM[20]: 16 bks, busW=16 BL=2 CL=12, tRRD=3 tCCD=1, tRCD=12 tRAS=28 tRP=12 tRC=40
n_cmd=53352 n_nop=43430 n_act=591 n_pre=575 n_ref_event=0 n_req=7475 n_rd=6752 n_rd_L2_A=0 n_write=0 n_wr_bk=2528 bw_util=0.1739
n_activity=24035 dram_eff=0.3861
bk0: 372a 50017i bk1: 380a 50011i bk2: 432a 50129i bk3: 432a 49867i bk4: 416a 50555i bk5: 416a 50272i bk6: 416a 50389i bk7: 416a 50141i bk8: 448a 49445i bk9: 448a 50178i bk10: 448a 50057i bk11: 448a 49770i bk12: 424a 50198i bk13: 424a 50168i bk14: 416a 50159i bk15: 416a 49948i 

------------------------------------------------------------------------

Row_Buffer_Locality = 0.924296
Row_Buffer_Locality_read = 0.938537
Row_Buffer_Locality_write = 0.772152
Bank_Level_Parallism = 3.468804
Bank_Level_Parallism_Col = 3.331124
Bank_Level_Parallism_Ready = 3.034159
write_to_read_ratio_blp_rw_average = 0.174091
GrpLevelPara = 1.808541 

BW Util details:
bwutil = 0.173939 
total_CMD = 53352 
util_bw = 9280 
Wasted_Col = 5573 
Wasted_Row = 2361 
Idle = 36138 

BW Util Bottlenecks: 
RCDc_limit = 3302 
RCDWRc_limit = 123 
WTRc_limit = 233 
RTWc_limit = 192 
CCDLc_limit = 3121 
rwq = 0 
CCDLc_limit_alone = 3096 
WTRc_limit_alone = 214 
RTWc_limit_alone = 186 

Commands details: 
total_CMD = 53352 
n_nop = 43430 
Read = 6752 
Write = 0 
L2_Alloc = 0 
L2_WB = 2528 
n_act = 591 
n_pre = 575 
n_ref = 0 
n_req = 7475 
total_req = 9280 

Dual Bus Interface Util: 
issued_total_row = 1166 
issued_total_col = 9280 
Row_Bus_Util =  0.021855 
CoL_Bus_Util = 0.173939 
Either_Row_CoL_Bus_Util = 0.185972 
Issued_on_Two_Bus_Simul_Util = 0.009822 
issued_two_Eff = 0.052812 
queue_avg = 3.514995 


dram_util_bins: 0 0 0 0 0 0 0 0 0 0
dram_eff_bins: 0 0 0 0 0 0 0 0 0 0
mrqq: max=64 avg=3.51499
Memory Partition 21: 
Cache L2_bank_042:
MSHR contents

Cache L2_bank_043:
MSHR contents

In Dram Latency Queue (total = 0): 
DRAM[21]: 16 bks, busW=16 BL=2 CL=12, tRRD=3 tCCD=1, tRCD=12 tRAS=28 tRP=12 tRC=40
n_cmd=53352 n_nop=43434 n_act=598 n_pre=582 n_ref_event=0 n_req=7485 n_rd=6764 n_rd_L2_A=0 n_write=0 n_wr_bk=2536 bw_util=0.1743
n_activity=23655 dram_eff=0.3932
bk0: 376a 49937i bk1: 380a 50001i bk2: 432a 49736i bk3: 432a 49464i bk4: 416a 50325i bk5: 416a 50019i bk6: 416a 50198i bk7: 416a 50010i bk8: 448a 49913i bk9: 448a 49875i bk10: 448a 49882i bk11: 448a 50085i bk12: 424a 50127i bk13: 432a 50110i bk14: 416a 49736i bk15: 416a 49967i 

------------------------------------------------------------------------

Row_Buffer_Locality = 0.923898
Row_Buffer_Locality_read = 0.939237
Row_Buffer_Locality_write = 0.760252
Bank_Level_Parallism = 3.602022
Bank_Level_Parallism_Col = 3.424693
Bank_Level_Parallism_Ready = 3.245269
write_to_read_ratio_blp_rw_average = 0.179751
GrpLevelPara = 1.818842 

BW Util details:
bwutil = 0.174314 
total_CMD = 53352 
util_bw = 9300 
Wasted_Col = 5619 
Wasted_Row = 2195 
Idle = 36238 

BW Util Bottlenecks: 
RCDc_limit = 3291 
RCDWRc_limit = 200 
WTRc_limit = 218 
RTWc_limit = 444 
CCDLc_limit = 3170 
rwq = 0 
CCDLc_limit_alone = 3141 
WTRc_limit_alone = 197 
RTWc_limit_alone = 436 

Commands details: 
total_CMD = 53352 
n_nop = 43434 
Read = 6764 
Write = 0 
L2_Alloc = 0 
L2_WB = 2536 
n_act = 598 
n_pre = 582 
n_ref = 0 
n_req = 7485 
total_req = 9300 

Dual Bus Interface Util: 
issued_total_row = 1180 
issued_total_col = 9300 
Row_Bus_Util =  0.022117 
CoL_Bus_Util = 0.174314 
Either_Row_CoL_Bus_Util = 0.185897 
Issued_on_Two_Bus_Simul_Util = 0.010534 
issued_two_Eff = 0.056665 
queue_avg = 3.629817 


dram_util_bins: 0 0 0 0 0 0 0 0 0 0
dram_eff_bins: 0 0 0 0 0 0 0 0 0 0
mrqq: max=64 avg=3.62982
Memory Partition 22: 
Cache L2_bank_044:
MSHR contents

Cache L2_bank_045:
MSHR contents

In Dram Latency Queue (total = 0): 
DRAM[22]: 16 bks, busW=16 BL=2 CL=12, tRRD=3 tCCD=1, tRCD=12 tRAS=28 tRP=12 tRC=40
n_cmd=53352 n_nop=43457 n_act=592 n_pre=576 n_ref_event=0 n_req=7449 n_rd=6728 n_rd_L2_A=0 n_write=0 n_wr_bk=2532 bw_util=0.1736
n_activity=22961 dram_eff=0.4033
bk0: 356a 49868i bk1: 376a 50042i bk2: 432a 49987i bk3: 432a 49844i bk4: 416a 50437i bk5: 416a 50184i bk6: 416a 50130i bk7: 412a 50021i bk8: 448a 50096i bk9: 448a 49871i bk10: 448a 50389i bk11: 444a 49721i bk12: 428a 50316i bk13: 424a 50423i bk14: 416a 50102i bk15: 416a 49909i 

------------------------------------------------------------------------

Row_Buffer_Locality = 0.925010
Row_Buffer_Locality_read = 0.940250
Row_Buffer_Locality_write = 0.763033
Bank_Level_Parallism = 3.587934
Bank_Level_Parallism_Col = 3.378996
Bank_Level_Parallism_Ready = 3.180562
write_to_read_ratio_blp_rw_average = 0.184934
GrpLevelPara = 1.832857 

BW Util details:
bwutil = 0.173564 
total_CMD = 53352 
util_bw = 9260 
Wasted_Col = 5278 
Wasted_Row = 2088 
Idle = 36726 

BW Util Bottlenecks: 
RCDc_limit = 3115 
RCDWRc_limit = 114 
WTRc_limit = 221 
RTWc_limit = 182 
CCDLc_limit = 3235 
rwq = 0 
CCDLc_limit_alone = 3216 
WTRc_limit_alone = 206 
RTWc_limit_alone = 178 

Commands details: 
total_CMD = 53352 
n_nop = 43457 
Read = 6728 
Write = 0 
L2_Alloc = 0 
L2_WB = 2532 
n_act = 592 
n_pre = 576 
n_ref = 0 
n_req = 7449 
total_req = 9260 

Dual Bus Interface Util: 
issued_total_row = 1168 
issued_total_col = 9260 
Row_Bus_Util =  0.021892 
CoL_Bus_Util = 0.173564 
Either_Row_CoL_Bus_Util = 0.185466 
Issued_on_Two_Bus_Simul_Util = 0.009990 
issued_two_Eff = 0.053866 
queue_avg = 3.380998 


dram_util_bins: 0 0 0 0 0 0 0 0 0 0
dram_eff_bins: 0 0 0 0 0 0 0 0 0 0
mrqq: max=64 avg=3.381
Memory Partition 23: 
Cache L2_bank_046:
MSHR contents

Cache L2_bank_047:
MSHR contents

In Dram Latency Queue (total = 0): 
DRAM[23]: 16 bks, busW=16 BL=2 CL=12, tRRD=3 tCCD=1, tRCD=12 tRAS=28 tRP=12 tRC=40
n_cmd=53352 n_nop=43169 n_act=637 n_pre=621 n_ref_event=0 n_req=7470 n_rd=6748 n_rd_L2_A=0 n_write=0 n_wr_bk=2760 bw_util=0.1782
n_activity=23928 dram_eff=0.3974
bk0: 364a 50201i bk1: 380a 50327i bk2: 432a 49714i bk3: 432a 49333i bk4: 416a 50408i bk5: 416a 50111i bk6: 416a 49650i bk7: 416a 49843i bk8: 448a 49596i bk9: 448a 49555i bk10: 448a 49947i bk11: 448a 49867i bk12: 432a 49843i bk13: 420a 50206i bk14: 416a 50059i bk15: 416a 50182i 

------------------------------------------------------------------------

Row_Buffer_Locality = 0.920140
Row_Buffer_Locality_read = 0.936426
Row_Buffer_Locality_write = 0.760870
Bank_Level_Parallism = 3.517892
Bank_Level_Parallism_Col = 3.323627
Bank_Level_Parallism_Ready = 3.166597
write_to_read_ratio_blp_rw_average = 0.188883
GrpLevelPara = 1.828061 

BW Util details:
bwutil = 0.178213 
total_CMD = 53352 
util_bw = 9508 
Wasted_Col = 5808 
Wasted_Row = 2373 
Idle = 35663 

BW Util Bottlenecks: 
RCDc_limit = 3453 
RCDWRc_limit = 163 
WTRc_limit = 188 
RTWc_limit = 225 
CCDLc_limit = 3409 
rwq = 0 
CCDLc_limit_alone = 3387 
WTRc_limit_alone = 169 
RTWc_limit_alone = 222 

Commands details: 
total_CMD = 53352 
n_nop = 43169 
Read = 6748 
Write = 0 
L2_Alloc = 0 
L2_WB = 2760 
n_act = 637 
n_pre = 621 
n_ref = 0 
n_req = 7470 
total_req = 9508 

Dual Bus Interface Util: 
issued_total_row = 1258 
issued_total_col = 9508 
Row_Bus_Util =  0.023579 
CoL_Bus_Util = 0.178213 
Either_Row_CoL_Bus_Util = 0.190864 
Issued_on_Two_Bus_Simul_Util = 0.010927 
issued_two_Eff = 0.057252 
queue_avg = 3.114354 


dram_util_bins: 0 0 0 0 0 0 0 0 0 0
dram_eff_bins: 0 0 0 0 0 0 0 0 0 0
mrqq: max=64 avg=3.11435

========= L2 cache stats =========
L2_cache_bank[0]: Access = 30729, Miss = 13100, Miss_rate = 0.426, Pending_hits = 409, Reservation_fails = 27
L2_cache_bank[1]: Access = 30514, Miss = 12340, Miss_rate = 0.404, Pending_hits = 289, Reservation_fails = 0
L2_cache_bank[2]: Access = 30471, Miss = 13104, Miss_rate = 0.430, Pending_hits = 411, Reservation_fails = 23
L2_cache_bank[3]: Access = 30602, Miss = 12327, Miss_rate = 0.403, Pending_hits = 303, Reservation_fails = 0
L2_cache_bank[4]: Access = 30768, Miss = 13096, Miss_rate = 0.426, Pending_hits = 426, Reservation_fails = 21
L2_cache_bank[5]: Access = 30494, Miss = 12332, Miss_rate = 0.404, Pending_hits = 295, Reservation_fails = 0
L2_cache_bank[6]: Access = 30552, Miss = 13144, Miss_rate = 0.430, Pending_hits = 441, Reservation_fails = 103
L2_cache_bank[7]: Access = 30610, Miss = 12296, Miss_rate = 0.402, Pending_hits = 332, Reservation_fails = 0
L2_cache_bank[8]: Access = 30751, Miss = 13094, Miss_rate = 0.426, Pending_hits = 436, Reservation_fails = 0
L2_cache_bank[9]: Access = 30492, Miss = 12320, Miss_rate = 0.404, Pending_hits = 279, Reservation_fails = 0
L2_cache_bank[10]: Access = 30502, Miss = 13092, Miss_rate = 0.429, Pending_hits = 425, Reservation_fails = 35
L2_cache_bank[11]: Access = 30545, Miss = 12328, Miss_rate = 0.404, Pending_hits = 267, Reservation_fails = 0
L2_cache_bank[12]: Access = 30754, Miss = 13120, Miss_rate = 0.427, Pending_hits = 455, Reservation_fails = 27
L2_cache_bank[13]: Access = 30562, Miss = 12304, Miss_rate = 0.403, Pending_hits = 310, Reservation_fails = 0
L2_cache_bank[14]: Access = 30535, Miss = 13116, Miss_rate = 0.430, Pending_hits = 447, Reservation_fails = 23
L2_cache_bank[15]: Access = 30646, Miss = 12344, Miss_rate = 0.403, Pending_hits = 318, Reservation_fails = 0
L2_cache_bank[16]: Access = 15229, Miss = 3904, Miss_rate = 0.256, Pending_hits = 99, Reservation_fails = 0
L2_cache_bank[17]: Access = 15387, Miss = 3128, Miss_rate = 0.203, Pending_hits = 27, Reservation_fails = 0
L2_cache_bank[18]: Access = 15381, Miss = 3900, Miss_rate = 0.254, Pending_hits = 100, Reservation_fails = 0
L2_cache_bank[19]: Access = 15363, Miss = 3120, Miss_rate = 0.203, Pending_hits = 28, Reservation_fails = 0
L2_cache_bank[20]: Access = 15206, Miss = 3920, Miss_rate = 0.258, Pending_hits = 96, Reservation_fails = 0
L2_cache_bank[21]: Access = 15405, Miss = 3128, Miss_rate = 0.203, Pending_hits = 40, Reservation_fails = 0
L2_cache_bank[22]: Access = 15430, Miss = 3912, Miss_rate = 0.254, Pending_hits = 101, Reservation_fails = 0
L2_cache_bank[23]: Access = 15364, Miss = 3136, Miss_rate = 0.204, Pending_hits = 27, Reservation_fails = 0
L2_cache_bank[24]: Access = 15219, Miss = 3908, Miss_rate = 0.257, Pending_hits = 85, Reservation_fails = 0
L2_cache_bank[25]: Access = 15359, Miss = 3136, Miss_rate = 0.204, Pending_hits = 26, Reservation_fails = 0
L2_cache_bank[26]: Access = 15409, Miss = 3896, Miss_rate = 0.253, Pending_hits = 110, Reservation_fails = 0
L2_cache_bank[27]: Access = 15347, Miss = 3136, Miss_rate = 0.204, Pending_hits = 21, Reservation_fails = 0
L2_cache_bank[28]: Access = 15257, Miss = 3904, Miss_rate = 0.256, Pending_hits = 108, Reservation_fails = 0
L2_cache_bank[29]: Access = 15390, Miss = 3121, Miss_rate = 0.203, Pending_hits = 25, Reservation_fails = 0
L2_cache_bank[30]: Access = 15408, Miss = 3892, Miss_rate = 0.253, Pending_hits = 104, Reservation_fails = 0
L2_cache_bank[31]: Access = 15350, Miss = 3120, Miss_rate = 0.203, Pending_hits = 22, Reservation_fails = 0
L2_cache_bank[32]: Access = 15291, Miss = 3868, Miss_rate = 0.253, Pending_hits = 97, Reservation_fails = 0
L2_cache_bank[33]: Access = 15230, Miss = 3072, Miss_rate = 0.202, Pending_hits = 33, Reservation_fails = 0
L2_cache_bank[34]: Access = 15342, Miss = 3860, Miss_rate = 0.252, Pending_hits = 97, Reservation_fails = 0
L2_cache_bank[35]: Access = 15135, Miss = 3072, Miss_rate = 0.203, Pending_hits = 27, Reservation_fails = 0
L2_cache_bank[36]: Access = 15300, Miss = 3872, Miss_rate = 0.253, Pending_hits = 89, Reservation_fails = 0
L2_cache_bank[37]: Access = 15188, Miss = 3072, Miss_rate = 0.202, Pending_hits = 31, Reservation_fails = 0
L2_cache_bank[38]: Access = 15337, Miss = 3884, Miss_rate = 0.253, Pending_hits = 91, Reservation_fails = 0
L2_cache_bank[39]: Access = 15332, Miss = 3067, Miss_rate = 0.200, Pending_hits = 31, Reservation_fails = 371
L2_cache_bank[40]: Access = 15332, Miss = 3888, Miss_rate = 0.254, Pending_hits = 106, Reservation_fails = 0
L2_cache_bank[41]: Access = 15189, Miss = 3072, Miss_rate = 0.202, Pending_hits = 33, Reservation_fails = 0
L2_cache_bank[42]: Access = 15330, Miss = 3900, Miss_rate = 0.254, Pending_hits = 92, Reservation_fails = 0
L2_cache_bank[43]: Access = 15057, Miss = 3072, Miss_rate = 0.204, Pending_hits = 28, Reservation_fails = 0
L2_cache_bank[44]: Access = 15256, Miss = 3868, Miss_rate = 0.254, Pending_hits = 91, Reservation_fails = 0
L2_cache_bank[45]: Access = 15201, Miss = 3068, Miss_rate = 0.202, Pending_hits = 36, Reservation_fails = 0
L2_cache_bank[46]: Access = 15352, Miss = 3884, Miss_rate = 0.253, Pending_hits = 100, Reservation_fails = 0
L2_cache_bank[47]: Access = 15118, Miss = 3072, Miss_rate = 0.203, Pending_hits = 25, Reservation_fails = 0
L2_total_cache_accesses = 979021
L2_total_cache_misses = 315309
L2_total_cache_miss_rate = 0.3221
L2_total_cache_pending_hits = 7869
L2_total_cache_reservation_fails = 630
L2_total_cache_breakdown:
	L2_cache_stats_breakdown[GLOBAL_ACC_R][HIT] = 56088
	L2_cache_stats_breakdown[GLOBAL_ACC_R][HIT_RESERVED] = 4573
	L2_cache_stats_breakdown[GLOBAL_ACC_R][MISS] = 59617
	L2_cache_stats_breakdown[GLOBAL_ACC_R][RESERVATION_FAIL] = 421
	L2_cache_stats_breakdown[GLOBAL_ACC_R][SECTOR_MISS] = 178845
	L2_cache_stats_breakdown[GLOBAL_ACC_R][MSHR_HIT] = 4573
	L2_cache_stats_breakdown[LOCAL_ACC_R][HIT] = 0
	L2_cache_stats_breakdown[LOCAL_ACC_R][HIT_RESERVED] = 0
	L2_cache_stats_breakdown[LOCAL_ACC_R][MISS] = 0
	L2_cache_stats_breakdown[LOCAL_ACC_R][RESERVATION_FAIL] = 0
	L2_cache_stats_breakdown[LOCAL_ACC_R][SECTOR_MISS] = 0
	L2_cache_stats_breakdown[LOCAL_ACC_R][MSHR_HIT] = 0
	L2_cache_stats_breakdown[CONST_ACC_R][HIT] = 0
	L2_cache_stats_breakdown[CONST_ACC_R][HIT_RESERVED] = 0
	L2_cache_stats_breakdown[CONST_ACC_R][MISS] = 0
	L2_cache_stats_breakdown[CONST_ACC_R][RESERVATION_FAIL] = 0
	L2_cache_stats_breakdown[CONST_ACC_R][SECTOR_MISS] = 0
	L2_cache_stats_breakdown[CONST_ACC_R][MSHR_HIT] = 0
	L2_cache_stats_breakdown[TEXTURE_ACC_R][HIT] = 0
	L2_cache_stats_breakdown[TEXTURE_ACC_R][HIT_RESERVED] = 0
	L2_cache_stats_breakdown[TEXTURE_ACC_R][MISS] = 0
	L2_cache_stats_breakdown[TEXTURE_ACC_R][RESERVATION_FAIL] = 0
	L2_cache_stats_breakdown[TEXTURE_ACC_R][SECTOR_MISS] = 0
	L2_cache_stats_breakdown[TEXTURE_ACC_R][MSHR_HIT] = 0
	L2_cache_stats_breakdown[GLOBAL_ACC_W][HIT] = 327242
	L2_cache_stats_breakdown[GLOBAL_ACC_W][HIT_RESERVED] = 0
	L2_cache_stats_breakdown[GLOBAL_ACC_W][MISS] = 111
	L2_cache_stats_breakdown[GLOBAL_ACC_W][RESERVATION_FAIL] = 0
	L2_cache_stats_breakdown[GLOBAL_ACC_W][SECTOR_MISS] = 333
	L2_cache_stats_breakdown[GLOBAL_ACC_W][MSHR_HIT] = 0
	L2_cache_stats_breakdown[LOCAL_ACC_W][HIT] = 0
	L2_cache_stats_breakdown[LOCAL_ACC_W][HIT_RESERVED] = 0
	L2_cache_stats_breakdown[LOCAL_ACC_W][MISS] = 0
	L2_cache_stats_breakdown[LOCAL_ACC_W][RESERVATION_FAIL] = 0
	L2_cache_stats_breakdown[LOCAL_ACC_W][SECTOR_MISS] = 0
	L2_cache_stats_breakdown[LOCAL_ACC_W][MSHR_HIT] = 0
	L2_cache_stats_breakdown[L1_WRBK_ACC][HIT] = 0
	L2_cache_stats_breakdown[L1_WRBK_ACC][HIT_RESERVED] = 0
	L2_cache_stats_breakdown[L1_WRBK_ACC][MISS] = 0
	L2_cache_stats_breakdown[L1_WRBK_ACC][RESERVATION_FAIL] = 0
	L2_cache_stats_breakdown[L1_WRBK_ACC][SECTOR_MISS] = 0
	L2_cache_stats_breakdown[L1_WRBK_ACC][MSHR_HIT] = 0
	L2_cache_stats_breakdown[L2_WRBK_ACC][HIT] = 0
	L2_cache_stats_breakdown[L2_WRBK_ACC][HIT_RESERVED] = 0
	L2_cache_stats_breakdown[L2_WRBK_ACC][MISS] = 0
	L2_cache_stats_breakdown[L2_WRBK_ACC][RESERVATION_FAIL] = 0
	L2_cache_stats_breakdown[L2_WRBK_ACC][SECTOR_MISS] = 0
	L2_cache_stats_breakdown[L2_WRBK_ACC][MSHR_HIT] = 0
	L2_cache_stats_breakdown[INST_ACC_R][HIT] = 0
	L2_cache_stats_breakdown[INST_ACC_R][HIT_RESERVED] = 0
	L2_cache_stats_breakdown[INST_ACC_R][MISS] = 0
	L2_cache_stats_breakdown[INST_ACC_R][RESERVATION_FAIL] = 0
	L2_cache_stats_breakdown[INST_ACC_R][SECTOR_MISS] = 0
	L2_cache_stats_breakdown[INST_ACC_R][MSHR_HIT] = 0
	L2_cache_stats_breakdown[L1_WR_ALLOC_R][HIT] = 0
	L2_cache_stats_breakdown[L1_WR_ALLOC_R][HIT_RESERVED] = 0
	L2_cache_stats_breakdown[L1_WR_ALLOC_R][MISS] = 0
	L2_cache_stats_breakdown[L1_WR_ALLOC_R][RESERVATION_FAIL] = 0
	L2_cache_stats_breakdown[L1_WR_ALLOC_R][SECTOR_MISS] = 0
	L2_cache_stats_breakdown[L1_WR_ALLOC_R][MSHR_HIT] = 0
	L2_cache_stats_breakdown[L2_WR_ALLOC_R][HIT] = 0
	L2_cache_stats_breakdown[L2_WR_ALLOC_R][HIT_RESERVED] = 0
	L2_cache_stats_breakdown[L2_WR_ALLOC_R][MISS] = 0
	L2_cache_stats_breakdown[L2_WR_ALLOC_R][RESERVATION_FAIL] = 0
	L2_cache_stats_breakdown[L2_WR_ALLOC_R][SECTOR_MISS] = 0
	L2_cache_stats_breakdown[L2_WR_ALLOC_R][MSHR_HIT] = 0
	L2_cache_stats_breakdown[GLOBAL_ACC_R][TOTAL_ACCESS] = 299123
	L2_cache_stats_breakdown[GLOBAL_ACC_W][TOTAL_ACCESS] = 327686
L2_total_cache_reservation_fail_breakdown:
	L2_cache_stats_fail_breakdown[GLOBAL_ACC_R][MSHR_ENRTY_FAIL] = 50
	L2_cache_stats_fail_breakdown[GLOBAL_ACC_R][MSHR_MERGE_ENRTY_FAIL] = 371
L2_cache_data_port_util = 0.182
L2_cache_fill_port_util = 0.085

icnt_total_pkts_mem_to_simt=979021
icnt_total_pkts_simt_to_mem=979021
LD_mem_lat_dist  0 0 0 0 0 0 0 0 0 0 0 0 0 0 0 0 0 0 0 0 0 0 0 0 0 0 0
ST_mem_lat_dist  0 0 0 0 0 0 0 0 0 0 0 0 0 0 0 0 0 0 0 0 0 0 0 0 0 0 0
----------------------------Interconnect-DETAILS--------------------------------
Req_Network_injected_packets_num = 979021
Req_Network_cycles = 75321
Req_Network_injected_packets_per_cycle =      12.9980 
Req_Network_conflicts_per_cycle =      18.4477
Req_Network_conflicts_per_cycle_util =      19.1399
Req_Bank_Level_Parallism =      13.4857
Req_Network_in_buffer_full_per_cycle =       0.5747
Req_Network_in_buffer_avg_util =     123.8448
Req_Network_out_buffer_full_per_cycle =       0.5917
Req_Network_out_buffer_avg_util =      49.7663

Reply_Network_injected_packets_num = 979021
Reply_Network_cycles = 75321
Reply_Network_injected_packets_per_cycle =       12.9980
Reply_Network_conflicts_per_cycle =       11.2067
Reply_Network_conflicts_per_cycle_util =      11.6247
Reply_Bank_Level_Parallism =      13.4827
Reply_Network_in_buffer_full_per_cycle =       0.0023
Reply_Network_in_buffer_avg_util =       7.9660
Reply_Network_out_buffer_full_per_cycle =       0.0000
Reply_Network_out_buffer_avg_util =       0.3249
----------------------------END-of-Interconnect-DETAILS-------------------------


gpgpu_simulation_time = 0 days, 0 hrs, 13 min, 11 sec (791 sec)
gpgpu_simulation_rate = 204230 (inst/sec)
gpgpu_simulation_rate = 95 (cycle/sec)
gpgpu_silicon_slowdown = 12631578x
Training done
GPGPU-Sim: *** exit detected ***
