self exe links to: /workspace/gpgpu-sim_simulations/benchmarks/src/cuda/bin/release/2DCONV
self exe links to: /workspace/gpgpu-sim_simulations/benchmarks/src/cuda/bin/release/2DCONV
10.1


        *** GPGPU-Sim Simulator Version 4.2.0  [build gpgpu-sim_git-commit-a4ce3fe_modified_0.0] ***


GPGPU-Sim PTX: simulation mode 0 (can change with PTX_SIM_MODE_FUNC environment variable:
               1=functional simulation only, 0=detailed performance simulator)
GPGPU-Sim PTX: overriding embedded ptx with ptx file (PTX_SIM_USE_PTX_FILE is set)
GPGPU-Sim: Configuration options:

-save_embedded_ptx                      0 # saves ptx files embedded in binary as <n>.ptx
-keep                                   0 # keep intermediate files created by GPGPU-Sim when interfacing with external programs
-gpgpu_ptx_save_converted_ptxplus                    0 # Saved converted ptxplus to a file
-gpgpu_occupancy_sm_number                   70 # The SM number to pass to ptxas when getting register usage for computing GPU occupancy. This parameter is required in the config.
-ptx_opcode_latency_int      4,13,4,5,145,32 # Opcode latencies for integers <ADD,MAX,MUL,MAD,DIV,SHFL>Default 1,1,19,25,145,32
-ptx_opcode_latency_fp          4,13,4,5,39 # Opcode latencies for single precision floating points <ADD,MAX,MUL,MAD,DIV>Default 1,1,1,1,30
-ptx_opcode_latency_dp         8,19,8,8,330 # Opcode latencies for double precision floating points <ADD,MAX,MUL,MAD,DIV>Default 8,8,8,8,335
-ptx_opcode_latency_sfu                  100 # Opcode latencies for SFU instructionsDefault 8
-ptx_opcode_latency_tesnor                   64 # Opcode latencies for Tensor instructionsDefault 64
-ptx_opcode_initiation_int          2,2,2,2,8,4 # Opcode initiation intervals for integers <ADD,MAX,MUL,MAD,DIV,SHFL>Default 1,1,4,4,32,4
-ptx_opcode_initiation_fp            2,2,2,2,4 # Opcode initiation intervals for single precision floating points <ADD,MAX,MUL,MAD,DIV>Default 1,1,1,1,5
-ptx_opcode_initiation_dp          4,4,4,4,130 # Opcode initiation intervals for double precision floating points <ADD,MAX,MUL,MAD,DIV>Default 8,8,8,8,130
-ptx_opcode_initiation_sfu                    8 # Opcode initiation intervals for sfu instructionsDefault 8
-ptx_opcode_initiation_tensor                   64 # Opcode initiation intervals for tensor instructionsDefault 64
-cdp_latency         7200,8000,100,12000,1600 # CDP API latency <cudaStreamCreateWithFlags, cudaGetParameterBufferV2_init_perWarp, cudaGetParameterBufferV2_perKernel, cudaLaunchDeviceV2_init_perWarp, cudaLaunchDevicV2_perKernel>Default 7200,8000,100,12000,1600
-network_mode                           2 # Interconnection network mode
-inter_config_file                   mesh # Interconnection network config file
-icnt_in_buffer_limit                  512 # in_buffer_limit
-icnt_out_buffer_limit                  512 # out_buffer_limit
-icnt_subnets                           2 # subnets
-icnt_arbiter_algo                      1 # arbiter_algo
-icnt_verbose                           0 # inct_verbose
-icnt_grant_cycles                      1 # grant_cycles
-gpgpu_ptx_use_cuobjdump                    1 # Use cuobjdump to extract ptx and sass from binaries
-gpgpu_experimental_lib_support                    0 # Try to extract code from cuda libraries [Broken because of unknown cudaGetExportTable]
-checkpoint_option                      0 #  checkpointing flag (0 = no checkpoint)
-checkpoint_kernel                      1 #  checkpointing during execution of which kernel (1- 1st kernel)
-checkpoint_CTA                         0 #  checkpointing after # of CTA (< less than total CTA)
-resume_option                          0 #  resume flag (0 = no resume)
-resume_kernel                          0 #  Resume from which kernel (1= 1st kernel)
-resume_CTA                             0 #  resume from which CTA 
-checkpoint_CTA_t                       0 #  resume from which CTA 
-checkpoint_insn_Y                      0 #  resume from which CTA 
-gpgpu_ptx_convert_to_ptxplus                    0 # Convert SASS (native ISA) to ptxplus and run ptxplus
-gpgpu_ptx_force_max_capability                   70 # Force maximum compute capability
-gpgpu_ptx_inst_debug_to_file                    0 # Dump executed instructions' debug information to file
-gpgpu_ptx_inst_debug_file       inst_debug.txt # Executed instructions' debug output file
-gpgpu_ptx_inst_debug_thread_uid                    1 # Thread UID for executed instructions' debug output
-gpgpu_simd_model                       1 # 1 = post-dominator
-gpgpu_shader_core_pipeline              2048:32 # shader core pipeline config, i.e., {<nthread>:<warpsize>}
-gpgpu_tex_cache:l1  N:4:128:256,L:R:m:N:L,T:512:8,128:2 # per-shader L1 texture cache  (READ-ONLY) config  {<nsets>:<bsize>:<assoc>,<rep>:<wr>:<alloc>:<wr_alloc>,<mshr>:<N>:<merge>,<mq>:<rf>}
-gpgpu_const_cache:l1 N:128:64:8,L:R:f:N:L,S:2:64,4 # per-shader L1 constant memory cache  (READ-ONLY) config  {<nsets>:<bsize>:<assoc>,<rep>:<wr>:<alloc>:<wr_alloc>,<mshr>:<N>:<merge>,<mq>} 
-gpgpu_cache:il1     N:64:128:16,L:R:f:N:L,S:2:48,4 # shader L1 instruction cache config  {<nsets>:<bsize>:<assoc>,<rep>:<wr>:<alloc>:<wr_alloc>,<mshr>:<N>:<merge>,<mq>} 
-gpgpu_cache:dl1     S:4:128:64,L:T:m:L:L,A:512:8,16:0,32 # per-shader L1 data cache config  {<nsets>:<bsize>:<assoc>,<rep>:<wr>:<alloc>:<wr_alloc>,<mshr>:<N>:<merge>,<mq> | none}
-gpgpu_l1_cache_write_ratio                   25 # L1D write ratio
-gpgpu_l1_banks                         4 # The number of L1 cache banks
-gpgpu_l1_banks_byte_interleaving                   32 # l1 banks byte interleaving granularity
-gpgpu_l1_banks_hashing_function                    0 # l1 banks hashing function
-gpgpu_l1_latency                      20 # L1 Hit Latency
-gpgpu_smem_latency                    20 # smem Latency
-gpgpu_cache:dl1PrefL1                 none # per-shader L1 data cache config  {<nsets>:<bsize>:<assoc>,<rep>:<wr>:<alloc>:<wr_alloc>,<mshr>:<N>:<merge>,<mq> | none}
-gpgpu_cache:dl1PrefShared                 none # per-shader L1 data cache config  {<nsets>:<bsize>:<assoc>,<rep>:<wr>:<alloc>:<wr_alloc>,<mshr>:<N>:<merge>,<mq> | none}
-gpgpu_gmem_skip_L1D                    0 # global memory access skip L1D cache (implements -Xptxas -dlcm=cg, default=no skip)
-gpgpu_perfect_mem                      0 # enable perfect memory mode (no cache miss)
-n_regfile_gating_group                    4 # group of lanes that should be read/written together)
-gpgpu_clock_gated_reg_file                    0 # enable clock gated reg file for power calculations
-gpgpu_clock_gated_lanes                    0 # enable clock gated lanes for power calculations
-gpgpu_shader_registers                65536 # Number of registers per shader core. Limits number of concurrent CTAs. (default 8192)
-gpgpu_registers_per_block                65536 # Maximum number of registers per CTA. (default 8192)
-gpgpu_ignore_resources_limitation                    0 # gpgpu_ignore_resources_limitation (default 0)
-gpgpu_shader_cta                      32 # Maximum number of concurrent CTAs in shader (default 32)
-gpgpu_num_cta_barriers                   16 # Maximum number of named barriers per CTA (default 16)
-gpgpu_n_clusters                      40 # number of processing clusters
-gpgpu_n_cores_per_cluster                    2 # number of simd cores per cluster
-gpgpu_n_cluster_ejection_buffer_size                   32 # number of packets in ejection buffer
-gpgpu_n_ldst_response_buffer_size                    2 # number of response packets in ld/st unit ejection buffer
-gpgpu_shmem_per_block                65536 # Size of shared memory per thread block or CTA (default 48kB)
-gpgpu_shmem_size                   98304 # Size of shared memory per shader core (default 16kB)
-gpgpu_shmem_option       0,8,16,32,64,96 # Option list of shared memory sizes
-gpgpu_unified_l1d_size                  128 # Size of unified data cache(L1D + shared memory) in KB
-gpgpu_adaptive_cache_config                    1 # adaptive_cache_config
-gpgpu_shmem_sizeDefault                98304 # Size of shared memory per shader core (default 16kB)
-gpgpu_shmem_size_PrefL1                16384 # Size of shared memory per shader core (default 16kB)
-gpgpu_shmem_size_PrefShared                16384 # Size of shared memory per shader core (default 16kB)
-gpgpu_shmem_num_banks                   32 # Number of banks in the shared memory in each shader core (default 16)
-gpgpu_shmem_limited_broadcast                    0 # Limit shared memory to do one broadcast per cycle (default on)
-gpgpu_shmem_warp_parts                    1 # Number of portions a warp is divided into for shared memory bank conflict check 
-gpgpu_mem_unit_ports                    1 # The number of memory transactions allowed per core cycle
-gpgpu_shmem_warp_parts                    1 # Number of portions a warp is divided into for shared memory bank conflict check 
-gpgpu_warpdistro_shader                   -1 # Specify which shader core to collect the warp size distribution from
-gpgpu_warp_issue_shader                    0 # Specify which shader core to collect the warp issue distribution from
-gpgpu_local_mem_map                    1 # Mapping from local memory space address to simulated GPU physical address space (default = enabled)
-gpgpu_num_reg_banks                    8 # Number of register banks (default = 8)
-gpgpu_reg_bank_use_warp_id                    0 # Use warp ID in mapping registers to banks (default = off)
-gpgpu_sub_core_model                    1 # Sub Core Volta/Pascal model (default = off)
-gpgpu_enable_specialized_operand_collector                    0 # enable_specialized_operand_collector
-gpgpu_operand_collector_num_units_sp                    4 # number of collector units (default = 4)
-gpgpu_operand_collector_num_units_dp                    0 # number of collector units (default = 0)
-gpgpu_operand_collector_num_units_sfu                    4 # number of collector units (default = 4)
-gpgpu_operand_collector_num_units_int                    0 # number of collector units (default = 0)
-gpgpu_operand_collector_num_units_tensor_core                    4 # number of collector units (default = 4)
-gpgpu_operand_collector_num_units_mem                    2 # number of collector units (default = 2)
-gpgpu_operand_collector_num_units_gen                    8 # number of collector units (default = 0)
-gpgpu_operand_collector_num_in_ports_sp                    1 # number of collector unit in ports (default = 1)
-gpgpu_operand_collector_num_in_ports_dp                    0 # number of collector unit in ports (default = 0)
-gpgpu_operand_collector_num_in_ports_sfu                    1 # number of collector unit in ports (default = 1)
-gpgpu_operand_collector_num_in_ports_int                    0 # number of collector unit in ports (default = 0)
-gpgpu_operand_collector_num_in_ports_tensor_core                    1 # number of collector unit in ports (default = 1)
-gpgpu_operand_collector_num_in_ports_mem                    1 # number of collector unit in ports (default = 1)
-gpgpu_operand_collector_num_in_ports_gen                    8 # number of collector unit in ports (default = 0)
-gpgpu_operand_collector_num_out_ports_sp                    1 # number of collector unit in ports (default = 1)
-gpgpu_operand_collector_num_out_ports_dp                    0 # number of collector unit in ports (default = 0)
-gpgpu_operand_collector_num_out_ports_sfu                    1 # number of collector unit in ports (default = 1)
-gpgpu_operand_collector_num_out_ports_int                    0 # number of collector unit in ports (default = 0)
-gpgpu_operand_collector_num_out_ports_tensor_core                    1 # number of collector unit in ports (default = 1)
-gpgpu_operand_collector_num_out_ports_mem                    1 # number of collector unit in ports (default = 1)
-gpgpu_operand_collector_num_out_ports_gen                    8 # number of collector unit in ports (default = 0)
-gpgpu_coalesce_arch                   60 # Coalescing arch (GT200 = 13, Fermi = 20)
-gpgpu_num_sched_per_core                    4 # Number of warp schedulers per core
-gpgpu_max_insn_issue_per_warp                    1 # Max number of instructions that can be issued per warp in one cycle by scheduler (either 1 or 2)
-gpgpu_dual_issue_diff_exec_units                    1 # should dual issue use two different execution unit resources (Default = 1)
-gpgpu_simt_core_sim_order                    1 # Select the simulation order of cores in a cluster (0=Fix, 1=Round-Robin)
-gpgpu_pipeline_widths 4,4,4,4,4,4,4,4,4,4,8,4,4 # Pipeline widths ID_OC_SP,ID_OC_DP,ID_OC_INT,ID_OC_SFU,ID_OC_MEM,OC_EX_SP,OC_EX_DP,OC_EX_INT,OC_EX_SFU,OC_EX_MEM,EX_WB,ID_OC_TENSOR_CORE,OC_EX_TENSOR_CORE
-gpgpu_tensor_core_avail                    1 # Tensor Core Available (default=0)
-gpgpu_num_sp_units                     4 # Number of SP units (default=1)
-gpgpu_num_dp_units                     4 # Number of DP units (default=0)
-gpgpu_num_int_units                    4 # Number of INT units (default=0)
-gpgpu_num_sfu_units                    4 # Number of SF units (default=1)
-gpgpu_num_tensor_core_units                    4 # Number of tensor_core units (default=1)
-gpgpu_num_mem_units                    1 # Number if ldst units (default=1) WARNING: not hooked up to anything
-gpgpu_scheduler                      lrr # Scheduler configuration: < lrr | gto | two_level_active > If two_level_active:<num_active_warps>:<inner_prioritization>:<outer_prioritization>For complete list of prioritization values see shader.h enum scheduler_prioritization_typeDefault: gto
-gpgpu_concurrent_kernel_sm                    0 # Support concurrent kernels on a SM (default = disabled)
-gpgpu_perfect_inst_const_cache                    1 # perfect inst and const cache mode, so all inst and const hits in the cache(default = disabled)
-gpgpu_inst_fetch_throughput                    4 # the number of fetched intruction per warp each cycle
-gpgpu_reg_file_port_throughput                    2 # the number ports of the register file
-specialized_unit_1         0,4,4,4,4,BRA # specialized unit config {<enabled>,<num_units>:<latency>:<initiation>,<ID_OC_SPEC>:<OC_EX_SPEC>,<NAME>}
-specialized_unit_2         0,4,4,4,4,BRA # specialized unit config {<enabled>,<num_units>:<latency>:<initiation>,<ID_OC_SPEC>:<OC_EX_SPEC>,<NAME>}
-specialized_unit_3         0,4,4,4,4,BRA # specialized unit config {<enabled>,<num_units>:<latency>:<initiation>,<ID_OC_SPEC>:<OC_EX_SPEC>,<NAME>}
-specialized_unit_4         0,4,4,4,4,BRA # specialized unit config {<enabled>,<num_units>:<latency>:<initiation>,<ID_OC_SPEC>:<OC_EX_SPEC>,<NAME>}
-specialized_unit_5         0,4,4,4,4,BRA # specialized unit config {<enabled>,<num_units>:<latency>:<initiation>,<ID_OC_SPEC>:<OC_EX_SPEC>,<NAME>}
-specialized_unit_6         0,4,4,4,4,BRA # specialized unit config {<enabled>,<num_units>:<latency>:<initiation>,<ID_OC_SPEC>:<OC_EX_SPEC>,<NAME>}
-specialized_unit_7         0,4,4,4,4,BRA # specialized unit config {<enabled>,<num_units>:<latency>:<initiation>,<ID_OC_SPEC>:<OC_EX_SPEC>,<NAME>}
-specialized_unit_8         0,4,4,4,4,BRA # specialized unit config {<enabled>,<num_units>:<latency>:<initiation>,<ID_OC_SPEC>:<OC_EX_SPEC>,<NAME>}
-gpgpu_perf_sim_memcpy                    1 # Fill the L2 cache on memcpy
-gpgpu_simple_dram_model                    0 # simple_dram_model with fixed latency and BW
-gpgpu_dram_scheduler                    1 # 0 = fifo, 1 = FR-FCFS (defaul)
-gpgpu_dram_partition_queues          64:64:64:64 # i2$:$2d:d2$:$2i
-l2_ideal                               0 # Use a ideal L2 cache that always hit
-gpgpu_cache:dl2     S:32:128:24,L:B:m:L:P,A:192:4,32:0,32 # unified banked L2 data cache config  {<nsets>:<bsize>:<assoc>,<rep>:<wr>:<alloc>:<wr_alloc>,<mshr>:<N>:<merge>,<mq>}
-gpgpu_cache:dl2_texture_only                    0 # L2 cache used for texture only
-gpgpu_n_mem                           24 # number of memory modules (e.g. memory controllers) in gpu
-gpgpu_n_sub_partition_per_mchannel                    2 # number of memory subpartition in each memory module
-gpgpu_n_mem_per_ctrlr                    1 # number of memory chips per memory controller
-gpgpu_memlatency_stat                   14 # track and display latency statistics 0x2 enables MC, 0x4 enables queue logs
-gpgpu_frfcfs_dram_sched_queue_size                   64 # 0 = unlimited (default); # entries per chip
-gpgpu_dram_return_queue_size                  192 # 0 = unlimited (default); # entries per chip
-gpgpu_dram_buswidth                   16 # default = 4 bytes (8 bytes per cycle at DDR)
-gpgpu_dram_burst_length                    2 # Burst length of each DRAM request (default = 4 data bus cycle)
-dram_data_command_freq_ratio                    2 # Frequency ratio between DRAM data bus and command bus (default = 2 times, i.e. DDR)
-gpgpu_dram_timing_opt nbk=16:CCD=1:RRD=3:RCD=12:RAS=28:RP=12:RC=40: CL=12:WL=2:CDLR=3:WR=10:nbkgrp=4:CCDL=2:RTPL=3 # DRAM timing parameters = {nbk:tCCD:tRRD:tRCD:tRAS:tRP:tRC:CL:WL:tCDLR:tWR:nbkgrp:tCCDL:tRTPL}
-gpgpu_l2_rop_latency                  160 # ROP queue latency (default 85)
-dram_latency                         100 # DRAM latency (default 30)
-dram_dual_bus_interface                  257 # dual_bus_interface (default = 0) 
-dram_bnk_indexing_policy                    1 # dram_bnk_indexing_policy (0 = normal indexing, 1 = Xoring with the higher bits) (Default = 0)
-dram_bnkgrp_indexing_policy                    1 # dram_bnkgrp_indexing_policy (0 = take higher bits, 1 = take lower bits) (Default = 0)
-dram_seperate_write_queue_enable                    1 # Seperate_Write_Queue_Enable
-dram_write_queue_size           128:108:32 # Write_Queue_Size
-dram_elimnate_rw_turnaround                    0 # elimnate_rw_turnaround i.e set tWTR and tRTW = 0
-icnt_flit_size                        40 # icnt_flit_size
-SST_mode                               0 # SST mode
-gpgpu_mem_addr_mapping dramid@8;00000000.00000000.00000000.00000000.0000RRRR.RRRRRRRR.RBBBCCCB.CCCSSSSS # mapping memory address to dram model {dramid@<start bit>;<memory address map>}
-gpgpu_mem_addr_test                    0 # run sweep test to check address mapping for aliased address
-gpgpu_mem_address_mask                    1 # 0 = old addressing mask, 1 = new addressing mask, 2 = new add. mask + flipped bank sel and chip sel bits
-gpgpu_memory_partition_indexing                    2 # 0 = no indexing, 1 = bitwise xoring, 2 = IPoly, 3 = custom indexing
-accelwattch_xml_file accelwattch_sass_sim.xml # AccelWattch XML file
-power_simulation_enabled                    0 # Turn on power simulator (1=On, 0=Off)
-power_per_cycle_dump                    0 # Dump detailed power output each cycle
-hw_perf_file_name            hw_perf.csv # Hardware Performance Statistics file
-hw_perf_bench_name                       # Kernel Name in Hardware Performance Statistics file
-power_simulation_mode                    0 # Switch performance counter input for power simulation (0=Sim, 1=HW, 2=HW-Sim Hybrid)
-dvfs_enabled                           0 # Turn on DVFS for power model
-aggregate_power_stats                    0 # Accumulate power across all kernels
-accelwattch_hybrid_perfsim_L1_RH                    0 # Get L1 Read Hits for Accelwattch-Hybrid from Accel-Sim
-accelwattch_hybrid_perfsim_L1_RM                    0 # Get L1 Read Misses for Accelwattch-Hybrid from Accel-Sim
-accelwattch_hybrid_perfsim_L1_WH                    0 # Get L1 Write Hits for Accelwattch-Hybrid from Accel-Sim
-accelwattch_hybrid_perfsim_L1_WM                    0 # Get L1 Write Misses for Accelwattch-Hybrid from Accel-Sim
-accelwattch_hybrid_perfsim_L2_RH                    0 # Get L2 Read Hits for Accelwattch-Hybrid from Accel-Sim
-accelwattch_hybrid_perfsim_L2_RM                    0 # Get L2 Read Misses for Accelwattch-Hybrid from Accel-Sim
-accelwattch_hybrid_perfsim_L2_WH                    0 # Get L2 Write Hits for Accelwattch-Hybrid from Accel-Sim
-accelwattch_hybrid_perfsim_L2_WM                    0 # Get L2 Write Misses for Accelwattch-Hybrid from Accel-Sim
-accelwattch_hybrid_perfsim_CC_ACC                    0 # Get Constant Cache Acesses for Accelwattch-Hybrid from Accel-Sim
-accelwattch_hybrid_perfsim_SHARED_ACC                    0 # Get Shared Memory Acesses for Accelwattch-Hybrid from Accel-Sim
-accelwattch_hybrid_perfsim_DRAM_RD                    0 # Get DRAM Reads for Accelwattch-Hybrid from Accel-Sim
-accelwattch_hybrid_perfsim_DRAM_WR                    0 # Get DRAM Writes for Accelwattch-Hybrid from Accel-Sim
-accelwattch_hybrid_perfsim_NOC                    0 # Get Interconnect Acesses for Accelwattch-Hybrid from Accel-Sim
-accelwattch_hybrid_perfsim_PIPE_DUTY                    0 # Get Pipeline Duty Cycle Acesses for Accelwattch-Hybrid from Accel-Sim
-accelwattch_hybrid_perfsim_NUM_SM_IDLE                    0 # Get Number of Idle SMs for Accelwattch-Hybrid from Accel-Sim
-accelwattch_hybrid_perfsim_CYCLES                    0 # Get Executed Cycles for Accelwattch-Hybrid from Accel-Sim
-accelwattch_hybrid_perfsim_VOLTAGE                    0 # Get Chip Voltage for Accelwattch-Hybrid from Accel-Sim
-power_trace_enabled                    0 # produce a file for the power trace (1=On, 0=Off)
-power_trace_zlevel                     6 # Compression level of the power trace output log (0=no comp, 9=highest)
-steady_power_levels_enabled                    0 # produce a file for the steady power levels (1=On, 0=Off)
-steady_state_definition                  8:4 # allowed deviation:number of samples
-gpgpu_max_cycle                        0 # terminates gpu simulation early (0 = no limit)
-gpgpu_max_insn                         0 # terminates gpu simulation early (0 = no limit)
-gpgpu_max_cta                          0 # terminates gpu simulation early (0 = no limit)
-gpgpu_max_completed_cta                    0 # terminates gpu simulation early (0 = no limit)
-gpgpu_runtime_stat                   500 # display runtime statistics such as dram utilization {<freq>:<flag>}
-liveness_message_freq                    1 # Minimum number of seconds between simulation liveness messages (0 = always print)
-gpgpu_compute_capability_major                    7 # Major compute capability version number
-gpgpu_compute_capability_minor                    0 # Minor compute capability version number
-gpgpu_flush_l1_cache                    1 # Flush L1 cache at the end of each kernel call
-gpgpu_flush_l2_cache                    0 # Flush L2 cache at the end of each kernel call
-gpgpu_deadlock_detect                    1 # Stop the simulation at deadlock (1=on (default), 0=off)
-gpgpu_ptx_instruction_classification                    0 # if enabled will classify ptx instruction types per kernel (Max 255 kernels now)
-gpgpu_ptx_sim_mode                     0 # Select between Performance (default) or Functional simulation (1)
-gpgpu_clock_domains 1200.0:1200.0:1200.0:850.0 # Clock Domain Frequencies in MhZ {<Core Clock>:<ICNT Clock>:<L2 Clock>:<DRAM Clock>}
-gpgpu_max_concurrent_kernel                  128 # maximum kernels that can run concurrently on GPU, set this value according to max resident grids for your compute capability
-gpgpu_cflog_interval                    0 # Interval between each snapshot in control flow logger
-visualizer_enabled                     0 # Turn on visualizer output (1=On, 0=Off)
-visualizer_outputfile                 NULL # Specifies the output log file for visualizer
-visualizer_zlevel                      6 # Compression level of the visualizer output log (0=no comp, 9=highest)
-gpgpu_stack_size_limit                 1024 # GPU thread stack size
-gpgpu_heap_size_limit              8388608 # GPU malloc heap size 
-gpgpu_runtime_sync_depth_limit                    2 # GPU device runtime synchronize depth
-gpgpu_runtime_pending_launch_count_limit                 2048 # GPU device runtime pending launch count
-trace_enabled                          0 # Turn on traces
-trace_components                    none # comma seperated list of traces to enable. Complete list found in trace_streams.tup. Default none
-trace_sampling_core                    0 # The core which is printed using CORE_DPRINTF. Default 0
-trace_sampling_memory_partition                   -1 # The memory partition which is printed using MEMPART_DPRINTF. Default -1 (i.e. all)
-enable_ptx_file_line_stats                    1 # Turn on PTX source line statistic profiling. (1 = On)
-ptx_line_stats_filename gpgpu_inst_stats.txt # Output file for PTX source line statistics.
-gpgpu_kernel_launch_latency                    0 # Kernel launch latency in cycles. Default: 0
-gpgpu_cdp_enabled                      0 # Turn on CDP
-gpgpu_TB_launch_latency                    0 # thread block launch latency in cycles. Default: 0
DRAM Timing Options:
nbk                                    16 # number of banks
CCD                                     1 # column to column delay
RRD                              45615af951ac26ecb58737412fc59c88  /workspace/gpgpu-sim_simulations/benchmarks/src/cuda/bin/release/2DCONV
Extracting PTX file and ptxas options    1: 2DCONV.1.sm_30.ptx -arch=sm_30
       3 # minimal delay between activation of rows in different banks
RCD                                    12 # row to column delay
RAS                                    28 # time needed to activate row
RP                                     12 # time needed to precharge (deactivate) row
RC                                     40 # row cycle time
CDLR                                    3 # switching from write to read (changes tWTR)
WR                                     10 # last data-in to row precharge
CL                                     12 # CAS latency
WL                                      2 # Write latency
nbkgrp                                  4 # number of bank groups
CCDL                                    2 # column to column delay between accesses to different bank groups
RTPL                                    3 # read to precharge delay between accesses to different bank groups
Total number of memory sub partition = 48
addr_dec_mask[CHIP]  = 0000000000000000 	high:64 low:0
addr_dec_mask[BK]    = 0000000000007100 	high:15 low:8
addr_dec_mask[ROW]   = 000000000fff8000 	high:28 low:15
addr_dec_mask[COL]   = 0000000000000eff 	high:12 low:0
addr_dec_mask[BURST] = 000000000000001f 	high:5 low:0
sub_partition_id_mask = 0000000000000100
GPGPU-Sim uArch: clock freqs: 1200000000.000000:1200000000.000000:1200000000.000000:850000000.000000
GPGPU-Sim uArch: clock periods: 0.00000000083333333333:0.00000000083333333333:0.00000000083333333333:0.00000000117647058824
*** Initializing Memory Statistics ***
GPGPU-Sim uArch: performance model initialization complete.
GPGPU-Sim PTX: __cudaRegisterFatBinary, fat_cubin_handle = 1, filename=default
self exe links to: /workspace/gpgpu-sim_simulations/benchmarks/src/cuda/bin/release/2DCONV
Running md5sum using "md5sum /workspace/gpgpu-sim_simulations/benchmarks/src/cuda/bin/release/2DCONV "
self exe links to: /workspace/gpgpu-sim_simulations/benchmarks/src/cuda/bin/release/2DCONV
Extracting specific PTX file named 2DCONV.1.sm_30.ptx 
GPGPU-Sim PTX: __cudaRegisterFunction _Z20Convolution2D_kernelPfS_ : hostFun 0x0x604f46c0197e, fat_cubin_handle = 1
GPGPU-Sim PTX: Parsing 2DCONV.1.sm_30.ptx
GPGPU-Sim PTX: instruction assembly for function '_Z20Convolution2D_kernelPfS_'...   done.
GPGPU-Sim PTX: finished parsing EMBEDDED .ptx file 2DCONV.1.sm_30.ptx
GPGPU-Sim PTX: loading globals with explicit initializers... 
GPGPU-Sim PTX: finished loading globals (0 bytes total).
GPGPU-Sim PTX: loading constants with explicit initializers...  done.
GPGPU-Sim PTX: Loading PTXInfo from 2DCONV.1.sm_30.ptx
GPGPU-Sim PTX: Kernel '_Z20Convolution2D_kernelPfS_' : regs=16, lmem=0, smem=0, cmem=368
setting device 0 with name GPGPU-Sim_vGPGPU-Sim Simulator Version 4.2.0 
GPGPU-Sim PTX: Setting up arguments for 8 bytes starting at 0x7ffc0df74b48..
GPGPU-Sim PTX: Setting up arguments for 8 bytes starting at 0x7ffc0df74b40..

GPGPU-Sim PTX: cudaLaunch for 0x0x604f46c0197e (mode=performance simulation) on stream 0
GPGPU-Sim PTX: finding reconvergence points for '_Z20Convolution2D_kernelPfS_'...
GPGPU-Sim PTX: Finding dominators for '_Z20Convolution2D_kernelPfS_'...
GPGPU-Sim PTX: Finding immediate dominators for '_Z20Convolution2D_kernelPfS_'...
GPGPU-Sim PTX: Finding postdominators for '_Z20Convolution2D_kernelPfS_'...
GPGPU-Sim PTX: Finding immediate postdominators for '_Z20Convolution2D_kernelPfS_'...
GPGPU-Sim PTX: pre-decoding instructions for '_Z20Convolution2D_kernelPfS_'...
GPGPU-Sim PTX: reconvergence points for _Z20Convolution2D_kernelPfS_...
GPGPU-Sim PTX:  1 (potential) branch divergence @  PC=0x088 (2DCONV.1.sm_30.ptx:43) @%p7 bra BB0_2;
GPGPU-Sim PTX:    immediate post dominator      @  PC=0x178 (2DCONV.1.sm_30.ptx:76) ret;
GPGPU-Sim PTX: ... end of reconvergence points for _Z20Convolution2D_kernelPfS_
GPGPU-Sim PTX: ... done pre-decoding instructions for '_Z20Convolution2D_kernelPfS_'.
GPGPU-Sim PTX: pushing kernel '_Z20Convolution2D_kernelPfS_' to stream 0, gridDim= (128,512,1) blockDim = (32,8,1) 
GPGPU-Sim uArch: Shader 0 bind to kernel 1 '_Z20Convolution2D_kernelPfS_'
GPGPU-Sim uArch: CTA/core = 8, limited by: threads
GPGPU-Sim: Reconfigure L1 cache to 128KB
GPGPU-Sim uArch: Shader 2 bind to kernel 1 '_Z20Convolution2D_kernelPfS_'
GPGPU-Sim uArch: Shader 4 bind to kernel 1 '_Z20Convolution2D_kernelPfS_'
GPGPU-Sim uArch: Shader 6 bind to kernel 1 '_Z20Convolution2D_kernelPfS_'
GPGPU-Sim uArch: Shader 8 bind to kernel 1 '_Z20Convolution2D_kernelPfS_'
GPGPU-Sim uArch: Shader 10 bind to kernel 1 '_Z20Convolution2D_kernelPfS_'
GPGPU-Sim uArch: Shader 12 bind to kernel 1 '_Z20Convolution2D_kernelPfS_'
GPGPU-Sim uArch: Shader 14 bind to kernel 1 '_Z20Convolution2D_kernelPfS_'
GPGPU-Sim uArch: Shader 16 bind to kernel 1 '_Z20Convolution2D_kernelPfS_'
GPGPU-Sim uArch: Shader 18 bind to kernel 1 '_Z20Convolution2D_kernelPfS_'
GPGPU-Sim uArch: Shader 20 bind to kernel 1 '_Z20Convolution2D_kernelPfS_'
GPGPU-Sim uArch: Shader 22 bind to kernel 1 '_Z20Convolution2D_kernelPfS_'
GPGPU-Sim uArch: Shader 24 bind to kernel 1 '_Z20Convolution2D_kernelPfS_'
GPGPU-Sim uArch: Shader 26 bind to kernel 1 '_Z20Convolution2D_kernelPfS_'
GPGPU-Sim uArch: Shader 28 bind to kernel 1 '_Z20Convolution2D_kernelPfS_'
GPGPU-Sim uArch: Shader 30 bind to kernel 1 '_Z20Convolution2D_kernelPfS_'
GPGPU-Sim uArch: Shader 32 bind to kernel 1 '_Z20Convolution2D_kernelPfS_'
GPGPU-Sim uArch: Shader 34 bind to kernel 1 '_Z20Convolution2D_kernelPfS_'
GPGPU-Sim uArch: Shader 36 bind to kernel 1 '_Z20Convolution2D_kernelPfS_'
GPGPU-Sim uArch: Shader 38 bind to kernel 1 '_Z20Convolution2D_kernelPfS_'
GPGPU-Sim uArch: Shader 40 bind to kernel 1 '_Z20Convolution2D_kernelPfS_'
GPGPU-Sim uArch: Shader 42 bind to kernel 1 '_Z20Convolution2D_kernelPfS_'
GPGPU-Sim uArch: Shader 44 bind to kernel 1 '_Z20Convolution2D_kernelPfS_'
GPGPU-Sim uArch: Shader 46 bind to kernel 1 '_Z20Convolution2D_kernelPfS_'
GPGPU-Sim uArch: Shader 48 bind to kernel 1 '_Z20Convolution2D_kernelPfS_'
GPGPU-Sim uArch: Shader 50 bind to kernel 1 '_Z20Convolution2D_kernelPfS_'
GPGPU-Sim uArch: Shader 52 bind to kernel 1 '_Z20Convolution2D_kernelPfS_'
GPGPU-Sim uArch: Shader 54 bind to kernel 1 '_Z20Convolution2D_kernelPfS_'
GPGPU-Sim uArch: Shader 56 bind to kernel 1 '_Z20Convolution2D_kernelPfS_'
GPGPU-Sim uArch: Shader 58 bind to kernel 1 '_Z20Convolution2D_kernelPfS_'
GPGPU-Sim uArch: Shader 60 bind to kernel 1 '_Z20Convolution2D_kernelPfS_'
GPGPU-Sim uArch: Shader 62 bind to kernel 1 '_Z20Convolution2D_kernelPfS_'
GPGPU-Sim uArch: Shader 64 bind to kernel 1 '_Z20Convolution2D_kernelPfS_'
GPGPU-Sim uArch: Shader 66 bind to kernel 1 '_Z20Convolution2D_kernelPfS_'
GPGPU-Sim uArch: Shader 68 bind to kernel 1 '_Z20Convolution2D_kernelPfS_'
GPGPU-Sim uArch: Shader 70 bind to kernel 1 '_Z20Convolution2D_kernelPfS_'
GPGPU-Sim uArch: Shader 72 bind to kernel 1 '_Z20Convolution2D_kernelPfS_'
GPGPU-Sim uArch: Shader 74 bind to kernel 1 '_Z20Convolution2D_kernelPfS_'
GPGPU-Sim uArch: Shader 76 bind to kernel 1 '_Z20Convolution2D_kernelPfS_'
GPGPU-Sim uArch: Shader 78 bind to kernel 1 '_Z20Convolution2D_kernelPfS_'
GPGPU-Sim uArch: Shader 1 bind to kernel 1 '_Z20Convolution2D_kernelPfS_'
GPGPU-Sim uArch: Shader 3 bind to kernel 1 '_Z20Convolution2D_kernelPfS_'
GPGPU-Sim uArch: Shader 5 bind to kernel 1 '_Z20Convolution2D_kernelPfS_'
GPGPU-Sim uArch: Shader 7 bind to kernel 1 '_Z20Convolution2D_kernelPfS_'
GPGPU-Sim uArch: Shader 9 bind to kernel 1 '_Z20Convolution2D_kernelPfS_'
GPGPU-Sim uArch: Shader 11 bind to kernel 1 '_Z20Convolution2D_kernelPfS_'
GPGPU-Sim uArch: Shader 13 bind to kernel 1 '_Z20Convolution2D_kernelPfS_'
GPGPU-Sim uArch: Shader 15 bind to kernel 1 '_Z20Convolution2D_kernelPfS_'
GPGPU-Sim uArch: Shader 17 bind to kernel 1 '_Z20Convolution2D_kernelPfS_'
GPGPU-Sim uArch: Shader 19 bind to kernel 1 '_Z20Convolution2D_kernelPfS_'
GPGPU-Sim uArch: Shader 21 bind to kernel 1 '_Z20Convolution2D_kernelPfS_'
GPGPU-Sim uArch: Shader 23 bind to kernel 1 '_Z20Convolution2D_kernelPfS_'
GPGPU-Sim uArch: Shader 25 bind to kernel 1 '_Z20Convolution2D_kernelPfS_'
GPGPU-Sim uArch: Shader 27 bind to kernel 1 '_Z20Convolution2D_kernelPfS_'
GPGPU-Sim uArch: Shader 29 bind to kernel 1 '_Z20Convolution2D_kernelPfS_'
GPGPU-Sim uArch: Shader 31 bind to kernel 1 '_Z20Convolution2D_kernelPfS_'
GPGPU-Sim uArch: Shader 33 bind to kernel 1 '_Z20Convolution2D_kernelPfS_'
GPGPU-Sim uArch: Shader 35 bind to kernel 1 '_Z20Convolution2D_kernelPfS_'
GPGPU-Sim uArch: Shader 37 bind to kernel 1 '_Z20Convolution2D_kernelPfS_'
GPGPU-Sim uArch: Shader 39 bind to kernel 1 '_Z20Convolution2D_kernelPfS_'
GPGPU-Sim uArch: Shader 41 bind to kernel 1 '_Z20Convolution2D_kernelPfS_'
GPGPU-Sim uArch: Shader 43 bind to kernel 1 '_Z20Convolution2D_kernelPfS_'
GPGPU-Sim uArch: Shader 45 bind to kernel 1 '_Z20Convolution2D_kernelPfS_'
GPGPU-Sim uArch: Shader 47 bind to kernel 1 '_Z20Convolution2D_kernelPfS_'
GPGPU-Sim uArch: Shader 49 bind to kernel 1 '_Z20Convolution2D_kernelPfS_'
GPGPU-Sim uArch: Shader 51 bind to kernel 1 '_Z20Convolution2D_kernelPfS_'
GPGPU-Sim uArch: Shader 53 bind to kernel 1 '_Z20Convolution2D_kernelPfS_'
GPGPU-Sim uArch: Shader 55 bind to kernel 1 '_Z20Convolution2D_kernelPfS_'
GPGPU-Sim uArch: Shader 57 bind to kernel 1 '_Z20Convolution2D_kernelPfS_'
GPGPU-Sim uArch: Shader 59 bind to kernel 1 '_Z20Convolution2D_kernelPfS_'
GPGPU-Sim uArch: Shader 61 bind to kernel 1 '_Z20Convolution2D_kernelPfS_'
GPGPU-Sim uArch: Shader 63 bind to kernel 1 '_Z20Convolution2D_kernelPfS_'
GPGPU-Sim uArch: Shader 65 bind to kernel 1 '_Z20Convolution2D_kernelPfS_'
GPGPU-Sim uArch: Shader 67 bind to kernel 1 '_Z20Convolution2D_kernelPfS_'
GPGPU-Sim uArch: Shader 69 bind to kernel 1 '_Z20Convolution2D_kernelPfS_'
GPGPU-Sim uArch: Shader 71 bind to kernel 1 '_Z20Convolution2D_kernelPfS_'
GPGPU-Sim uArch: Shader 73 bind to kernel 1 '_Z20Convolution2D_kernelPfS_'
GPGPU-Sim uArch: Shader 75 bind to kernel 1 '_Z20Convolution2D_kernelPfS_'
GPGPU-Sim uArch: Shader 77 bind to kernel 1 '_Z20Convolution2D_kernelPfS_'
GPGPU-Sim uArch: Shader 79 bind to kernel 1 '_Z20Convolution2D_kernelPfS_'
Destroy streams for kernel 1: size 0
kernel_name = _Z20Convolution2D_kernelPfS_ 
kernel_launch_uid = 1 
kernel_stream_id = 0
gpu_sim_cycle = 413725
gpu_sim_insn = 788070512
gpu_ipc =    1904.8173
gpu_tot_sim_cycle = 413725
gpu_tot_sim_insn = 788070512
gpu_tot_ipc =    1904.8173
gpu_tot_issued_cta = 65536
gpu_occupancy = 70.8145% 
gpu_tot_occupancy = 70.8145% 
max_total_param_size = 0
gpu_stall_dramfull = 1906989
gpu_stall_icnt2sh    = 0
partiton_level_parallism =      14.4732
partiton_level_parallism_total  =      14.4732
partiton_level_parallism_util =      14.5117
partiton_level_parallism_util_total  =      14.5117
L2_BW  =     555.7717 GB/Sec
L2_BW_total  =     555.7717 GB/Sec
gpu_total_sim_rate=140450

========= Core cache stats =========
L1I_cache:
	L1I_total_cache_accesses = 0
	L1I_total_cache_misses = 0
	L1I_total_cache_pending_hits = 0
	L1I_total_cache_reservation_fails = 0
L1D_cache:
	L1D_cache_core[0]: Access = 598715, Miss = 149149, Miss_rate = 0.249, Pending_hits = 81798, Reservation_fails = 14269
	L1D_cache_core[1]: Access = 603442, Miss = 149794, Miss_rate = 0.248, Pending_hits = 83696, Reservation_fails = 14821
	L1D_cache_core[2]: Access = 598342, Miss = 148692, Miss_rate = 0.249, Pending_hits = 82778, Reservation_fails = 14820
	L1D_cache_core[3]: Access = 600016, Miss = 149226, Miss_rate = 0.249, Pending_hits = 82757, Reservation_fails = 14613
	L1D_cache_core[4]: Access = 594822, Miss = 147996, Miss_rate = 0.249, Pending_hits = 81582, Reservation_fails = 14523
	L1D_cache_core[5]: Access = 603972, Miss = 150026, Miss_rate = 0.248, Pending_hits = 83413, Reservation_fails = 14422
	L1D_cache_core[6]: Access = 599238, Miss = 149028, Miss_rate = 0.249, Pending_hits = 82804, Reservation_fails = 13624
	L1D_cache_core[7]: Access = 604737, Miss = 150291, Miss_rate = 0.249, Pending_hits = 83516, Reservation_fails = 14421
	L1D_cache_core[8]: Access = 599652, Miss = 149166, Miss_rate = 0.249, Pending_hits = 82644, Reservation_fails = 14457
	L1D_cache_core[9]: Access = 608280, Miss = 151168, Miss_rate = 0.249, Pending_hits = 83828, Reservation_fails = 14345
	L1D_cache_core[10]: Access = 607522, Miss = 151094, Miss_rate = 0.249, Pending_hits = 83654, Reservation_fails = 15153
	L1D_cache_core[11]: Access = 596948, Miss = 148564, Miss_rate = 0.249, Pending_hits = 82089, Reservation_fails = 14971
	L1D_cache_core[12]: Access = 605268, Miss = 150518, Miss_rate = 0.249, Pending_hits = 83660, Reservation_fails = 14543
	L1D_cache_core[13]: Access = 601127, Miss = 149523, Miss_rate = 0.249, Pending_hits = 82797, Reservation_fails = 15030
	L1D_cache_core[14]: Access = 608464, Miss = 150972, Miss_rate = 0.248, Pending_hits = 83575, Reservation_fails = 15331
	L1D_cache_core[15]: Access = 602572, Miss = 149938, Miss_rate = 0.249, Pending_hits = 82829, Reservation_fails = 14716
	L1D_cache_core[16]: Access = 599972, Miss = 149258, Miss_rate = 0.249, Pending_hits = 82840, Reservation_fails = 14447
	L1D_cache_core[17]: Access = 603864, Miss = 150076, Miss_rate = 0.249, Pending_hits = 82991, Reservation_fails = 15171
	L1D_cache_core[18]: Access = 601268, Miss = 149578, Miss_rate = 0.249, Pending_hits = 82795, Reservation_fails = 14799
	L1D_cache_core[19]: Access = 600044, Miss = 149348, Miss_rate = 0.249, Pending_hits = 82810, Reservation_fails = 13796
	L1D_cache_core[20]: Access = 599522, Miss = 149148, Miss_rate = 0.249, Pending_hits = 82458, Reservation_fails = 15255
	L1D_cache_core[21]: Access = 601106, Miss = 149498, Miss_rate = 0.249, Pending_hits = 82681, Reservation_fails = 14614
	L1D_cache_core[22]: Access = 605316, Miss = 150426, Miss_rate = 0.249, Pending_hits = 83818, Reservation_fails = 14689
	L1D_cache_core[23]: Access = 607056, Miss = 150824, Miss_rate = 0.248, Pending_hits = 83672, Reservation_fails = 14862
	L1D_cache_core[24]: Access = 604120, Miss = 150094, Miss_rate = 0.248, Pending_hits = 83546, Reservation_fails = 14473
	L1D_cache_core[25]: Access = 594226, Miss = 147796, Miss_rate = 0.249, Pending_hits = 82139, Reservation_fails = 14549
	L1D_cache_core[26]: Access = 607772, Miss = 151156, Miss_rate = 0.249, Pending_hits = 83301, Reservation_fails = 15184
	L1D_cache_core[27]: Access = 600318, Miss = 149452, Miss_rate = 0.249, Pending_hits = 82486, Reservation_fails = 14012
	L1D_cache_core[28]: Access = 601888, Miss = 149780, Miss_rate = 0.249, Pending_hits = 83049, Reservation_fails = 14566
	L1D_cache_core[29]: Access = 602406, Miss = 149780, Miss_rate = 0.249, Pending_hits = 83036, Reservation_fails = 14602
	L1D_cache_core[30]: Access = 606970, Miss = 150772, Miss_rate = 0.248, Pending_hits = 83901, Reservation_fails = 14889
	L1D_cache_core[31]: Access = 599378, Miss = 149116, Miss_rate = 0.249, Pending_hits = 82480, Reservation_fails = 14933
	L1D_cache_core[32]: Access = 600808, Miss = 149358, Miss_rate = 0.249, Pending_hits = 82895, Reservation_fails = 14374
	L1D_cache_core[33]: Access = 602824, Miss = 149856, Miss_rate = 0.249, Pending_hits = 83166, Reservation_fails = 14518
	L1D_cache_core[34]: Access = 601472, Miss = 149812, Miss_rate = 0.249, Pending_hits = 82725, Reservation_fails = 13526
	L1D_cache_core[35]: Access = 600780, Miss = 149418, Miss_rate = 0.249, Pending_hits = 82616, Reservation_fails = 14358
	L1D_cache_core[36]: Access = 602074, Miss = 149650, Miss_rate = 0.249, Pending_hits = 82890, Reservation_fails = 14419
	L1D_cache_core[37]: Access = 598940, Miss = 149056, Miss_rate = 0.249, Pending_hits = 82741, Reservation_fails = 14832
	L1D_cache_core[38]: Access = 600860, Miss = 149166, Miss_rate = 0.248, Pending_hits = 83076, Reservation_fails = 15061
	L1D_cache_core[39]: Access = 604807, Miss = 150371, Miss_rate = 0.249, Pending_hits = 83894, Reservation_fails = 14590
	L1D_total_cache_accesses = 24080908
	L1D_total_cache_misses = 5987934
	L1D_total_cache_miss_rate = 0.2487
	L1D_total_cache_pending_hits = 3319426
	L1D_total_cache_reservation_fails = 584578
	L1D_cache_data_port_util = 0.447
	L1D_cache_fill_port_util = 0.118
L1C_cache:
	L1C_total_cache_accesses = 0
	L1C_total_cache_misses = 0
	L1C_total_cache_pending_hits = 0
	L1C_total_cache_reservation_fails = 0
L1T_cache:
	L1T_total_cache_accesses = 0
	L1T_total_cache_misses = 0
	L1T_total_cache_pending_hits = 0
	L1T_total_cache_reservation_fails = 0

Total_core_cache_stats:
	Total_core_cache_stats_breakdown[GLOBAL_ACC_R][HIT] = 14773548
	Total_core_cache_stats_breakdown[GLOBAL_ACC_R][HIT_RESERVED] = 3319426
	Total_core_cache_stats_breakdown[GLOBAL_ACC_R][MISS] = 1918554
	Total_core_cache_stats_breakdown[GLOBAL_ACC_R][RESERVATION_FAIL] = 577775
	Total_core_cache_stats_breakdown[GLOBAL_ACC_R][SECTOR_MISS] = 1973252
	Total_core_cache_stats_breakdown[GLOBAL_ACC_R][MSHR_HIT] = 3319426
	Total_core_cache_stats_breakdown[LOCAL_ACC_R][HIT] = 0
	Total_core_cache_stats_breakdown[LOCAL_ACC_R][HIT_RESERVED] = 0
	Total_core_cache_stats_breakdown[LOCAL_ACC_R][MISS] = 0
	Total_core_cache_stats_breakdown[LOCAL_ACC_R][RESERVATION_FAIL] = 0
	Total_core_cache_stats_breakdown[LOCAL_ACC_R][SECTOR_MISS] = 0
	Total_core_cache_stats_breakdown[LOCAL_ACC_R][MSHR_HIT] = 0
	Total_core_cache_stats_breakdown[CONST_ACC_R][HIT] = 0
	Total_core_cache_stats_breakdown[CONST_ACC_R][HIT_RESERVED] = 0
	Total_core_cache_stats_breakdown[CONST_ACC_R][MISS] = 0
	Total_core_cache_stats_breakdown[CONST_ACC_R][RESERVATION_FAIL] = 0
	Total_core_cache_stats_breakdown[CONST_ACC_R][SECTOR_MISS] = 0
	Total_core_cache_stats_breakdown[CONST_ACC_R][MSHR_HIT] = 0
	Total_core_cache_stats_breakdown[TEXTURE_ACC_R][HIT] = 0
	Total_core_cache_stats_breakdown[TEXTURE_ACC_R][HIT_RESERVED] = 0
	Total_core_cache_stats_breakdown[TEXTURE_ACC_R][MISS] = 0
	Total_core_cache_stats_breakdown[TEXTURE_ACC_R][RESERVATION_FAIL] = 0
	Total_core_cache_stats_breakdown[TEXTURE_ACC_R][SECTOR_MISS] = 0
	Total_core_cache_stats_breakdown[TEXTURE_ACC_R][MSHR_HIT] = 0
	Total_core_cache_stats_breakdown[GLOBAL_ACC_W][HIT] = 0
	Total_core_cache_stats_breakdown[GLOBAL_ACC_W][HIT_RESERVED] = 0
	Total_core_cache_stats_breakdown[GLOBAL_ACC_W][MISS] = 524032
	Total_core_cache_stats_breakdown[GLOBAL_ACC_W][RESERVATION_FAIL] = 6803
	Total_core_cache_stats_breakdown[GLOBAL_ACC_W][SECTOR_MISS] = 1572096
	Total_core_cache_stats_breakdown[GLOBAL_ACC_W][MSHR_HIT] = 0
	Total_core_cache_stats_breakdown[LOCAL_ACC_W][HIT] = 0
	Total_core_cache_stats_breakdown[LOCAL_ACC_W][HIT_RESERVED] = 0
	Total_core_cache_stats_breakdown[LOCAL_ACC_W][MISS] = 0
	Total_core_cache_stats_breakdown[LOCAL_ACC_W][RESERVATION_FAIL] = 0
	Total_core_cache_stats_breakdown[LOCAL_ACC_W][SECTOR_MISS] = 0
	Total_core_cache_stats_breakdown[LOCAL_ACC_W][MSHR_HIT] = 0
	Total_core_cache_stats_breakdown[L1_WRBK_ACC][HIT] = 0
	Total_core_cache_stats_breakdown[L1_WRBK_ACC][HIT_RESERVED] = 0
	Total_core_cache_stats_breakdown[L1_WRBK_ACC][MISS] = 0
	Total_core_cache_stats_breakdown[L1_WRBK_ACC][RESERVATION_FAIL] = 0
	Total_core_cache_stats_breakdown[L1_WRBK_ACC][SECTOR_MISS] = 0
	Total_core_cache_stats_breakdown[L1_WRBK_ACC][MSHR_HIT] = 0
	Total_core_cache_stats_breakdown[L2_WRBK_ACC][HIT] = 0
	Total_core_cache_stats_breakdown[L2_WRBK_ACC][HIT_RESERVED] = 0
	Total_core_cache_stats_breakdown[L2_WRBK_ACC][MISS] = 0
	Total_core_cache_stats_breakdown[L2_WRBK_ACC][RESERVATION_FAIL] = 0
	Total_core_cache_stats_breakdown[L2_WRBK_ACC][SECTOR_MISS] = 0
	Total_core_cache_stats_breakdown[L2_WRBK_ACC][MSHR_HIT] = 0
	Total_core_cache_stats_breakdown[INST_ACC_R][HIT] = 0
	Total_core_cache_stats_breakdown[INST_ACC_R][HIT_RESERVED] = 0
	Total_core_cache_stats_breakdown[INST_ACC_R][MISS] = 0
	Total_core_cache_stats_breakdown[INST_ACC_R][RESERVATION_FAIL] = 0
	Total_core_cache_stats_breakdown[INST_ACC_R][SECTOR_MISS] = 0
	Total_core_cache_stats_breakdown[INST_ACC_R][MSHR_HIT] = 0
	Total_core_cache_stats_breakdown[L1_WR_ALLOC_R][HIT] = 0
	Total_core_cache_stats_breakdown[L1_WR_ALLOC_R][HIT_RESERVED] = 0
	Total_core_cache_stats_breakdown[L1_WR_ALLOC_R][MISS] = 0
	Total_core_cache_stats_breakdown[L1_WR_ALLOC_R][RESERVATION_FAIL] = 0
	Total_core_cache_stats_breakdown[L1_WR_ALLOC_R][SECTOR_MISS] = 0
	Total_core_cache_stats_breakdown[L1_WR_ALLOC_R][MSHR_HIT] = 0
	Total_core_cache_stats_breakdown[L2_WR_ALLOC_R][HIT] = 0
	Total_core_cache_stats_breakdown[L2_WR_ALLOC_R][HIT_RESERVED] = 0
	Total_core_cache_stats_breakdown[L2_WR_ALLOC_R][MISS] = 0
	Total_core_cache_stats_breakdown[L2_WR_ALLOC_R][RESERVATION_FAIL] = 0
	Total_core_cache_stats_breakdown[L2_WR_ALLOC_R][SECTOR_MISS] = 0
	Total_core_cache_stats_breakdown[L2_WR_ALLOC_R][MSHR_HIT] = 0
	Total_core_cache_stats_breakdown[GLOBAL_ACC_R][TOTAL_ACCESS] = 21984780
	Total_core_cache_stats_breakdown[GLOBAL_ACC_W][TOTAL_ACCESS] = 2096128

Total_core_cache_fail_stats:
	Total_core_cache_fail_stats_breakdown[GLOBAL_ACC_R][MISS_QUEUE_FULL] = 577775
	Total_core_cache_fail_stats_breakdown[GLOBAL_ACC_W][MISS_QUEUE_FULL] = 6803
ctas_completed 65536, Shader 0 warp_id issue ditsribution:
warp_id:
0, 1, 2, 3, 4, 5, 6, 7, 8, 9, 10, 11, 12, 13, 14, 15, 16, 17, 18, 19, 20, 21, 22, 23, 24, 25, 26, 27, 28, 29, 30, 31, 32, 33, 34, 35, 36, 37, 38, 39, 40, 41, 42, 43, 44, 45, 46, 47, 48, 49, 50, 51, 52, 53, 54, 55, 56, 57, 58, 59, 60, 61, 62, 63, 
distro:
4867, 4896, 4896, 4896, 4896, 4896, 4896, 4896, 4867, 4896, 4896, 4896, 4896, 4896, 4896, 4896, 4896, 4896, 4896, 4896, 4896, 4896, 4896, 4896, 4896, 4896, 4896, 4896, 4896, 4896, 4896, 4896, 4992, 4992, 4992, 4992, 4992, 4992, 4992, 4992, 4896, 4896, 4896, 4896, 4896, 4896, 4896, 4896, 4944, 4944, 4944, 4944, 4944, 4944, 4944, 4944, 4896, 4896, 4896, 4896, 4896, 4896, 4896, 4896, 
gpgpu_n_tot_thrd_icount = 805068800
gpgpu_n_tot_w_icount = 25158400
gpgpu_n_stall_shd_mem = 3213697
gpgpu_n_mem_read_local = 0
gpgpu_n_mem_write_local = 0
gpgpu_n_mem_read_global = 3891806
gpgpu_n_mem_write_global = 2096128
gpgpu_n_mem_texture = 0
gpgpu_n_mem_const = 0
gpgpu_n_load_insn  = 150847524
gpgpu_n_store_insn = 16760836
gpgpu_n_shmem_insn = 0
gpgpu_n_sstarr_insn = 0
gpgpu_n_tex_insn = 0
gpgpu_n_const_mem_insn = 0
gpgpu_n_param_mem_insn = 33554432
gpgpu_n_shmem_bkconflict = 0
gpgpu_n_l1cache_bkconflict = 95419
gpgpu_n_intrawarp_mshr_merge = 0
gpgpu_n_cmem_portconflict = 0
gpgpu_stall_shd_mem[c_mem][resource_stall] = 0
gpgpu_stall_shd_mem[s_mem][bk_conf] = 0
gpgpu_stall_shd_mem[gl_mem][resource_stall] = 95419
gpgpu_stall_shd_mem[gl_mem][coal_stall] = 3118278
gpgpu_stall_shd_mem[gl_mem][data_port_stall] = 0
gpu_reg_bank_conflict_stalls = 0
Warp Occupancy Distribution:
Stall:3595040	W0_Idle:484949	W0_Scoreboard:103012575	W1:0	W2:0	W3:0	W4:0	W5:0	W6:0	W7:0	W8:0	W9:0	W10:0	W11:0	W12:0	W13:0	W14:0	W15:0	W16:0	W17:0	W18:0	W19:0	W20:0	W21:0	W22:0	W23:0	W24:0	W25:0	W26:0	W27:0	W28:0	W29:0	W30:0	W31:237452	W32:24920948
single_issue_nums: WS0:6287744	WS1:6291456	WS2:6291456	WS3:6287744	
dual_issue_nums: WS0:0	WS1:0	WS2:0	WS3:0	
traffic_breakdown_coretomem[GLOBAL_ACC_R] = 31134448 {8:3891806,}
traffic_breakdown_coretomem[GLOBAL_ACC_W] = 83845120 {40:2096128,}
traffic_breakdown_memtocore[GLOBAL_ACC_R] = 155672240 {40:3891806,}
traffic_breakdown_memtocore[GLOBAL_ACC_W] = 16769024 {8:2096128,}
maxmflatency = 3832 
max_icnt2mem_latency = 2456 
maxmrqlatency = 9388 
max_icnt2sh_latency = 283 
averagemflatency = 616 
avg_icnt2mem_latency = 243 
avg_mrq_latency = 330 
avg_icnt2sh_latency = 8 
mrq_lat_table:393788 	431470 	228991 	149138 	140778 	210669 	158845 	108460 	232136 	297317 	153676 	84597 	11040 	35 	0 	0 	0 	0 	0 	0 	0 	0 	0 	0 	0 	0 	0 	0 	0 	0 	0 	0 	
dq_lat_table:0 	0 	0 	0 	0 	0 	0 	0 	0 	0 	0 	0 	0 	0 	0 	0 	0 	0 	0 	0 	0 	0 	0 	0 	0 	0 	0 	0 	0 	0 	0 	0 	
mf_lat_table:0 	0 	0 	0 	0 	0 	0 	1432735 	1798624 	1722836 	993376 	40363 	0 	0 	0 	0 	0 	0 	0 	0 	0 	0 	0 	0 	0 	0 	0 	0 	0 	0 	0 	0 	
icnt2mem_lat_table:0 	0 	0 	0 	1107459 	1078290 	1015087 	887231 	874719 	896036 	128775 	337 	0 	0 	0 	0 	0 	0 	0 	0 	0 	0 	0 	0 	
icnt2sh_lat_table:0 	3298116 	1197768 	715084 	431780 	229461 	100385 	15152 	188 	0 	0 	0 	0 	0 	0 	0 	0 	0 	0 	0 	0 	0 	0 	0 	
mf_lat_pw_table:0 	0 	0 	0 	0 	0 	0 	2 	156 	665 	3 	0 	0 	0 	0 	0 	0 	0 	0 	0 	0 	0 	0 	0 	0 	0 	0 	0 	0 	0 	0 	0 	
maximum concurrent accesses to same row:
dram[0]:       112       109       117       119       110       111       112       114        97       104       102       105        96       117       112       116 
dram[1]:        99       105       105       112       103       109       110       114       109       111       105       106       104        99       113       116 
dram[2]:       112       101       100       106       108       102       107       112       100       112       107       105       113        98       108       114 
dram[3]:       107       102       109       108        96       102       114       111       104       112       109       100       110       111       113       116 
dram[4]:        97       107       103       110       102       104       114       112       102       113       113       106       110       109       101       112 
dram[5]:       107       104       103       107       104       115       105       115       106       100       114       106       106       118       107       116 
dram[6]:       113       102       117       112       106       109       114       113       114       110       116       107       118       105       110       114 
dram[7]:       108       109       111       103       107       115       112       117       112        96       101        97       116       113       114       114 
dram[8]:        75        72        70        70        79        71        71        70        75        77        71        79        76        71        79        71 
dram[9]:        76        73        79        78        72        78        71        74        68        71        71        71        74        72        72        71 
dram[10]:        66        70        71        68        79        68        73        73        70        70        73        72        74        77        79        69 
dram[11]:        75        71        70        76        78        74        75        71        70        70        73        73        74        71        68        71 
dram[12]:        77        72        79        67        76        73        73        73        71        71        75        71        76        71        69        78 
dram[13]:        78        73        70        74        76        77        75        75        69        71        74        73        73        79        79        79 
dram[14]:        74        74        74        79        72        71        75        75        71        69        77        76        68        68        68        67 
dram[15]:        71        71        69        71        79        71        70        73        68        69        79        79        69        71        78        71 
dram[16]:        77        78        79        76        73        73        69        74        71        77        75        71        71        71        78        68 
dram[17]:        79        64        72        79        75        78        79        79        78        73        69        74        71        71        74        72 
dram[18]:        69        64        72        73        76        76        71        70        76        76        75        75        71        71        79        78 
dram[19]:        71        64        70        79        77        76        70        76        69        71        76        79        71        71        77        73 
dram[20]:        76        78        79        77        74        74        72        73        73        78        74        72        71        79        72        71 
dram[21]:        71        64        71        71        76        76        73        73        74        78        74        74        71        70        78        72 
dram[22]:        70        70        71        78        75        74        79        78        74        71        73        77        76        71        78        71 
dram[23]:        71        70        74        78        76        79        78        76        66        71        75        71        71        71        76        79 
maximum service time to same row:
dram[0]:      4152      4241      4264      4685      5005      4999      4413      4886      5013      5038      5016      4927      5099      5309      4979      5239 
dram[1]:      4263      4363      4058      4679      5229      5431      4304      4622      4881      5129      4404      4621      5936      5413      4387      4585 
dram[2]:      4278      4297      4550      4625      5033      5455      4420      5010      4969      5287      4394      4941      6108      5339      5247      4548 
dram[3]:      4166      4165      4564      4751      4940      5475      4484      4471      4852      5128      4845      4963      5280      5366      4444      4235 
dram[4]:      4127      4369      4331      4491      5152      5007      5074      4965      4985      5144      4825      5162      5335      5111      4250      4848 
dram[5]:      4012      4375      4437      4175      5260      4822      4612      4331      5052      5077      5253      4728      5408      5008      4512      4950 
dram[6]:      4647      4831      4681      4476      5121      4975      4563      4479      4911      5025      5150      4632      5771      5291      4883      4997 
dram[7]:      4137      4100      4098      5099      5362      5354      4918      5664      5075      5175      5080      4518      5867      5334      5021      5025 
dram[8]:      5299      5236      6609      6644      5207      5247      5683      6063      5590      5558      5442      5457      5653      5381      4928      5351 
dram[9]:      5170      5236      6706      6711      5366      5177      5806      5965      5587      5699      5415      5496      5474      5120      4836      5325 
dram[10]:      5274      5210      6699      6785      5150      5979      5983      6040      5613      5659      5424      5558      5427      5054      5270      5081 
dram[11]:      5308      5232      6648      6697      5836      5579      5316      5695      5536      5722      5937      5518      5193      5063      5556      5147 
dram[12]:      5499      5242      6773      6819      5373      5358      6099      6240      5548      5503      5455      5571      5250      5329      5155      5986 
dram[13]:      5195      5299      6774      6796      6267      5219      6000      6032      5548      6019      5495      5577      5503      5344      5441      5311 
dram[14]:      5292      5240      6704      6881      5185      5182      6228      6288      5627      5389      5406      5517      5236      4765      5587      5096 
dram[15]:      5260      5283      6691      6942      5320      5217      6044      6143      5489      5552      5415      5550      5384      4932      4958      5413 
dram[16]:      5580      6008      6490      6840      5439      5476      6598      5349      5012      5167      5349      5438      5633      5344      4912      5383 
dram[17]:      5609      6048      6527      6787      5164      5333      5206      6320      5009      5246      5247      5430      5582      5535      5082      5274 
dram[18]:      5582      6027      6437      6790      5216      5302      6692      6698      5074      5748      5372      5403      5861      5247      5737      5639 
dram[19]:      5566      6019      6434      6722      5474      4995      7300      5766      5056      5166      5328      5451      5597      5228      5572      5523 
dram[20]:      5604      6100      6628      6727      5245      5157      7448      6798      4995      5336      5389      5471      5682      5611      5563      5485 
dram[21]:      5669      6191      6579      6709      5622      5213      6719      6543      4906      5142      5446      5429      5783      5142      5547      5620 
dram[22]:      5586      6195      6547      6631      5680      5275      7224      6657      4981      5458      5314      5406      5620      4996      5106      5237 
dram[23]:      5601      6210      6499      6657      5260      5423      5550      5351      4925      5478      5438      5498      5563      5110      5523      5639 
average row accesses per activate:
dram[0]: 22.752232 23.338673 23.826290 25.136139 23.747099 25.214285 23.962530 24.653011 22.287281 23.316513 24.245823 24.306221 23.412443 24.545895 25.086420 25.336658 
dram[1]: 23.716280 24.177725 23.532408 24.252983 24.914843 25.918987 24.958536 24.141510 21.669510 22.145969 23.685314 24.033096 24.250597 25.091358 25.336658 25.463659 
dram[2]: 22.607538 23.236902 24.243437 25.847328 23.483946 25.098040 25.409430 23.701389 22.100000 22.786995 23.800938 24.252983 24.602905 25.407499 24.484337 25.984655 
dram[3]: 22.814318 22.671112 23.249428 25.791878 24.260664 24.731884 24.495214 25.137592 23.532408 22.941309 23.625582 24.255369 24.486748 25.334164 26.118252 25.659090 
dram[4]: 22.961712 23.509216 23.450346 23.807962 22.950672 25.406948 24.837379 25.341583 21.965443 22.240700 23.309633 24.322966 24.190475 24.486748 23.962265 24.605328 
dram[5]: 22.069263 23.345537 23.403225 25.133663 24.253555 24.729469 24.141510 25.785894 22.389868 22.733780 23.680653 24.420673 23.630232 25.341646 24.963144 25.022167 
dram[6]: 22.550884 24.218527 24.226730 24.282297 24.306414 25.911392 24.760290 25.508728 22.238512 22.639198 23.400921 24.425480 25.083950 25.336658 25.208437 25.146040 
dram[7]: 23.179546 23.836449 24.541063 24.007092 23.639723 24.373810 25.916456 25.521196 21.638298 22.203056 23.148064 24.550724 24.425480 24.423077 24.722628 25.466166 
dram[8]: 18.966291 18.902985 19.135849 19.503845 18.494585 19.620689 18.421818 17.782455 17.798586 18.253624 18.733334 18.810410 20.439516 19.480770 17.601398 19.496124 
dram[9]: 18.241007 18.443636 19.071428 18.929104 18.632727 19.405304 18.237410 19.105659 17.239725 18.039427 18.201439 17.996441 19.052631 19.937008 18.394161 18.880150 
dram[10]: 17.310579 18.436363 18.454546 19.285172 18.708029 19.335850 18.704798 19.406130 17.928825 18.057348 19.098114 19.540541 19.952755 19.789062 17.935944 18.876404 
dram[11]: 17.922262 18.970037 18.777779 19.886274 19.343397 19.700001 17.852112 18.503649 17.368965 17.023649 18.737038 19.170454 21.379747 20.754099 18.260870 19.298851 
dram[12]: 17.855635 17.238094 18.510948 18.578754 19.339622 19.040892 18.421818 18.114286 17.243151 18.057348 19.239544 19.026316 19.948818 19.635658 18.461538 18.198557 
dram[13]: 17.522491 18.281588 19.484615 18.910448 18.700729 19.864342 18.154121 18.362318 16.730898 17.833334 18.880596 18.810410 19.937008 20.581301 19.068182 19.060606 
dram[14]: 17.855635 18.100000 18.314079 19.421455 19.194757 20.000000 17.852112 18.244604 17.020269 18.000000 19.094339 19.098114 19.048872 19.631783 17.812721 18.947369 
dram[15]: 18.035587 18.847584 18.507299 18.647058 18.565218 20.098040 18.107143 18.230215 16.460785 16.895973 18.010675 18.007118 19.643412 19.866667 18.346716 19.996031 
dram[16]: 17.288136 17.801394 19.255726 19.944664 18.578754 19.635658 18.827206 19.052044 18.226618 18.625000 19.527132 19.011320 18.666666 19.310345 18.425455 19.254753 
dram[17]: 17.579309 17.301695 19.049057 20.261044 18.981274 18.785185 18.438848 19.557251 17.897526 17.827465 18.728624 19.155893 18.327272 18.876404 19.339695 19.940945 
dram[18]: 17.901754 18.170818 19.267176 19.482626 19.723736 19.480770 18.296429 18.501804 17.651567 18.096428 18.947369 18.736059 18.876404 18.947369 19.789062 19.627907 
dram[19]: 16.828382 18.304659 19.337164 19.415384 19.432951 19.579151 19.191011 19.097015 17.838028 18.296028 18.253624 19.451738 18.876404 18.327272 18.693727 19.181818 
dram[20]: 17.522337 18.174377 19.788235 19.255726 19.417625 19.269962 18.907749 18.173759 17.472414 18.223022 18.868914 19.838583 18.064516 19.090910 19.792969 20.095238 
dram[21]: 16.986666 17.023333 18.832090 19.562016 19.886274 19.719845 18.498196 18.505415 17.778948 18.223022 19.302683 19.523256 18.805969 19.163498 19.870588 19.552124 
dram[22]: 17.643599 17.678200 19.792156 20.027779 19.808594 19.552124 19.179775 19.052044 17.768421 18.219425 19.527132 19.838583 18.876404 18.805969 18.697416 19.858824 
dram[23]: 18.210714 18.099291 19.117424 19.714844 19.208334 19.204546 19.561069 19.405304 17.968084 18.762962 19.159697 19.236641 17.809187 19.236641 19.185606 19.858824 
average row locality = 2600940/123312 = 21.092352
number of total memory accesses made:
dram[0]:         0         0         0         0         0         0         0         0         0         0         0         0         0         0         0         0 
dram[1]:         0         0         0         0         0         0         0         0         0         0         0         0         0         0         0         0 
dram[2]:         0         0         0         0         0         0         0         0         0         0         0         0         0         0         0         0 
dram[3]:         0         0         0         0         0         0         0         0         0         0         0         0         0         0         0         0 
dram[4]:         0         0         0         0         0         0         0         0         0         0         0         0         0         0         0         0 
dram[5]:         0         0         0         0         0         0         0         0         0         0         0         0         0         0         0         0 
dram[6]:         0         0         0         0         0         0         0         0         0         0         0         0         0         0         0         0 
dram[7]:         0         0         0         0         0         0         0         0         0         0         0         0         0         0         0         0 
dram[8]:         0         0         0         0         0         0         0         0         0         0         0         0         0         0         0         0 
dram[9]:         0         0         0         0         0         0         0         0         0         0         0         0         0         0         0         0 
dram[10]:         0         0         0         0         0         0         0         0         0         0         0         0         0         0         0         0 
dram[11]:         0         0         0         0         0         0         0         0         0         0         0         0         0         0         0         0 
dram[12]:         0         0         0         0         0         0         0         0         0         0         0         0         0         0         0         0 
dram[13]:         0         0         0         0         0         0         0         0         0         0         0         0         0         0         0         0 
dram[14]:         0         0         0         0         0         0         0         0         0         0         0         0         0         0         0         0 
dram[15]:         0         0         0         0         0         0         0         0         0         0         0         0         0         0         0         0 
dram[16]:         0         0         0         0         0         0         0         0         0         0         0         0         0         0         0         0 
dram[17]:         0         0         0         0         0         0         0         0         0         0         0         0         0         0         0         0 
dram[18]:         0         0         0         0         0         0         0         0         0         0         0         0         0         0         0         0 
dram[19]:         0         0         0         0         0         0         0         0         0         0         0         0         0         0         0         0 
dram[20]:         0         0         0         0         0         0         0         0         0         0         0         0         0         0         0         0 
dram[21]:         0         0         0         0         0         0         0         0         0         0         0         0         0         0         0         0 
dram[22]:         0         0         0         0         0         0         0         0         0         0         0         0         0         0         0         0 
dram[23]:         0         0         0         0         0         0         0         0         0         0         0         0         0         0         0         0 
total accesses: 0
min_bank_accesses = 0!
min_chip_accesses = 0!
number of total read accesses:
dram[0]:      8256      8256      8256      8256      8216      8208      8160      8160      8160      8160      8160      8160      8160      8160      8160      8160 
dram[1]:      8256      8256      8256      8256      8216      8208      8160      8160      8160      8160      8160      8160      8160      8160      8160      8160 
dram[2]:      8256      8256      8256      8256      8216      8208      8160      8160      8160      8160      8160      8160      8160      8160      8160      8160 
dram[3]:      8256      8256      8256      8256      8216      8208      8160      8160      8160      8160      8160      8160      8160      8160      8160      8160 
dram[4]:      8256      8256      8256      8256      8216      8208      8160      8160      8160      8160      8160      8160      8160      8160      8160      8160 
dram[5]:      8256      8256      8256      8256      8216      8208      8160      8160      8160      8160      8160      8160      8160      8160      8160      8160 
dram[6]:      8256      8256      8256      8256      8216      8208      8160      8160      8160      8160      8160      8160      8160      8160      8160      8160 
dram[7]:      8256      8256      8256      8256      8216      8208      8160      8160      8160      8160      8160      8160      8160      8160      8160      8160 
dram[8]:      4096      4096      4160      4160      4160      4160      4032      4032      4032      4032      4128      4128      4128      4128      4032      4032 
dram[9]:      4096      4096      4160      4160      4160      4160      4032      4032      4032      4032      4128      4128      4128      4128      4032      4032 
dram[10]:      4096      4096      4160      4160      4160      4160      4032      4032      4032      4032      4128      4128      4128      4128      4032      4032 
dram[11]:      4096      4096      4160      4160      4160      4160      4032      4032      4032      4032      4128      4128      4128      4128      4032      4032 
dram[12]:      4096      4096      4160      4160      4160      4160      4032      4032      4032      4032      4128      4128      4128      4128      4032      4032 
dram[13]:      4096      4096      4160      4160      4160      4160      4032      4032      4032      4032      4128      4128      4128      4128      4032      4032 
dram[14]:      4096      4096      4160      4160      4160      4160      4032      4032      4032      4032      4128      4128      4128      4128      4032      4032 
dram[15]:      4096      4096      4160      4160      4160      4160      4032      4032      4032      4032      4128      4128      4128      4128      4032      4032 
dram[16]:      4160      4160      4096      4096      4080      4072      4128      4128      4128      4128      4032      4032      4032      4032      4128      4128 
dram[17]:      4160      4160      4096      4096      4080      4072      4128      4128      4128      4128      4032      4032      4032      4032      4128      4128 
dram[18]:      4160      4160      4096      4096      4080      4072      4128      4128      4128      4128      4032      4032      4032      4032      4128      4128 
dram[19]:      4160      4160      4096      4096      4080      4072      4128      4128      4128      4128      4032      4032      4032      4032      4128      4128 
dram[20]:      4160      4160      4096      4096      4080      4072      4128      4128      4128      4128      4032      4032      4032      4032      4128      4128 
dram[21]:      4160      4160      4096      4096      4080      4072      4128      4128      4128      4128      4032      4032      4032      4032      4128      4128 
dram[22]:      4160      4160      4096      4096      4080      4072      4128      4128      4128      4128      4032      4032      4032      4032      4128      4128 
dram[23]:      4160      4160      4096      4096      4080      4072      4128      4128      4128      4128      4032      4032      4032      4032      4128      4128 
total dram reads = 2097152
bank skew: 8256/4032 = 2.05
chip skew: 131048/65536 = 2.00
number of total write accesses:
dram[0]:      7988      7988      7968      7960      7952      7968      8028      8020      8000      8000      8004      7992      7988      8000      8004      7992 
dram[1]:      7976      7976      7972      7956      7952      7968      8028      8024      8000      8000      8000      7988      8000      7992      8000      8000 
dram[2]:      7984      7976      7964      7956      7952      7964      8028      8020      8000      8004      7988      7992      7996      8000      8004      8000 
dram[3]:      7980      7980      7968      7952      7952      7956      8024      8024      8004      8004      7992      7996      8000      7996      8004      7984 
dram[4]:      7988      7980      7972      7956      7952      7960      8028      8024      8008      8000      7992      7992      7992      7996      7996      7996 
dram[5]:      7984      7968      7968      7956      7952      7964      8024      8024      8000      8000      7992      7992      7996      8000      8008      7992 
dram[6]:      7980      7976      7960      7952      7948      7968      8028      8024      8000      8004      8000      7988      8000      7996      8004      7988 
dram[7]:      7988      7984      7964      7952      7948      7968      8028      8032      8004      8004      7984      7996      7992      7988      8004      7988 
dram[8]:      3872      3872      3904      3904      3904      3892      3936      3928      3900      3884      3904      3904      3904      3904      3872      3872 
dram[9]:      3872      3872      3904      3904      3904      3896      3936      3932      3896      3876      3904      3904      3904      3904      3872      3872 
dram[10]:      3872      3872      3904      3904      3904      3904      3928      3936      3888      3880      3904      3904      3904      3904      3872      3872 
dram[11]:      3872      3872      3904      3904      3904      3896      3932      3936      3892      3880      3904      3904      3904      3904      3872      3872 
dram[12]:      3872      3872      3904      3904      3896      3900      3936      3932      3892      3884      3904      3904      3904      3904      3872      3872 
dram[13]:      3872      3872      3904      3904      3900      3900      3932      3936      3892      3880      3904      3904      3904      3904      3872      3872 
dram[14]:      3872      3872      3904      3904      3900      3896      3936      3932      3884      3884      3904      3904      3904      3904      3872      3872 
dram[15]:      3872      3872      3904      3904      3904      3900      3936      3936      3888      3880      3904      3904      3904      3904      3872      3872 
dram[16]:      3904      3904      3872      3872      3880      3880      3936      3936      3904      3904      3884      3872      3892      3888      3904      3904 
dram[17]:      3904      3904      3876      3872      3868      3880      3936      3936      3908      3912      3876      3872      3888      3884      3904      3904 
dram[18]:      3904      3904      3872      3872      3872      3880      3936      3936      3904      3912      3872      3872      3888      3888      3904      3904 
dram[19]:      3904      3904      3872      3872      3880      3876      3936      3936      3904      3904      3880      3872      3892      3888      3904      3904 
dram[20]:      3904      3904      3872      3872      3880      3876      3936      3936      3904      3908      3880      3872      3892      3888      3904      3904 
dram[21]:      3904      3904      3872      3872      3880      3880      3936      3936      3904      3904      3884      3872      3896      3888      3904      3904 
dram[22]:      3904      3904      3872      3872      3876      3876      3936      3936      3904      3908      3880      3872      3880      3888      3904      3904 
dram[23]:      3904      3904      3872      3872      3880      3876      3936      3936      3904      3908      3872      3872      3892      3888      3904      3904 
total dram writes = 2020056
bank skew: 8032/3868 = 2.08
chip skew: 127852/62316 = 2.05
average mf latency per bank:
dram[0]:       1214      1174      1316      1355      1148      1113      1199      1313      1424      1394      1510      1557       997       975      1037      1117
dram[1]:       1194      1150      1311      1343      1151      1123      1221      1309      1439      1388      1522      1536       998       971      1045      1128
dram[2]:       1224      1185      1318      1343      1158      1115      1206      1299      1430      1398      1496      1540      1026       989      1052      1143
dram[3]:       1189      1159      1285      1318      1131      1078      1184      1284      1402      1370      1458      1487      1004       966      1049      1118
dram[4]:       1253      1213      1366      1392      1172      1147      1220      1320      1438      1410      1519      1552      1058      1022      1080      1164
dram[5]:       1229      1190      1334      1367      1175      1131      1218      1314      1435      1390      1507      1544      1026       995      1056      1130
dram[6]:       1192      1169      1314      1341      1158      1122      1221      1313      1429      1387      1499      1527      1002       980      1041      1128
dram[7]:       1213      1177      1329      1360      1179      1144      1221      1325      1449      1397      1524      1548      1039      1005      1068      1153
dram[8]:        558       540       568       580       575       558       511       525       564       559       562       563       518       505       469       501
dram[9]:        546       538       579       595       579       566       528       541       562       545       555       568       533       516       488       515
dram[10]:        532       517       570       582       576       567       524       542       562       548       563       569       536       514       475       505
dram[11]:        541       532       566       586       581       569       528       544       565       545       554       569       529       506       486       503
dram[12]:        533       517       567       587       583       569       535       555       568       547       564       572       535       516       486       501
dram[13]:        536       524       576       585       581       574       530       540       558       542       547       560       529       513       470       495
dram[14]:        538       525       580       584       577       571       534       549       557       536       563       572       537       517       476       500
dram[15]:        550       534       570       587       574       556       514       534       554       545       565       570       534       517       480       498
dram[16]:        527       518       555       579       569       552       529       547       573       552       548       571       536       514       463       500
dram[17]:        527       516       563       582       573       556       526       543       565       558       552       563       541       530       471       498
dram[18]:        533       517       556       581       568       555       530       555       578       558       550       563       529       514       466       492
dram[19]:        530       515       562       579       564       553       529       552       570       562       556       566       541       516       470       493
dram[20]:        533       521       553       576       556       551       517       541       557       546       562       584       537       518       461       488
dram[21]:        527       510       561       583       566       551       524       548       560       551       559       575       529       511       457       479
dram[22]:        532       516       567       583       580       556       525       543       557       546       558       575       535       517       464       490
dram[23]:        538       529       564       583       558       547       509       526       553       539       559       575       530       512       457       479
maximum mf latency per bank:
dram[0]:       2653      3189      2490      2434      2612      2575      2785      2985      3066      3059      3071      3661      2058      2336      1984      2203
dram[1]:       2940      2203      2511      2507      2539      2795      3554      2838      3234      3127      2955      3196      1956      2126      2999      2631
dram[2]:       2429      2961      2539      2644      2379      2397      2769      2968      3066      3449      3072      3088      2146      1933      2054      2249
dram[3]:       2247      2402      2426      2485      2861      2485      3510      3151      3304      3832      3181      3056      2636      2081      2553      2337
dram[4]:       2616      2600      2837      2882      2380      3258      2650      3200      3155      3292      3036      3121      2126      2366      2400      2427
dram[5]:       2264      2248      2584      3086      2925      2627      2662      2841      3504      3287      2960      3280      1910      2310      2216      2291
dram[6]:       2224      2933      2608      2418      2557      2536      2945      3414      3040      3030      3107      2986      1909      2348      2153      2873
dram[7]:       2751      2855      2636      2494      3227      2648      2710      2870      2902      3161      3179      3352      2496      2425      2385      2984
[...]
GrpLevelPara = 2.502433 

BW Util details:
bwutil = 0.435905 
total_CMD = 293055 
util_bw = 127744 
Wasted_Col = 31540 
Wasted_Row = 8112 
Idle = 125659 

BW Util Bottlenecks: 
RCDc_limit = 12028 
RCDWRc_limit = 611 
WTRc_limit = 2918 
RTWc_limit = 3859 
CCDLc_limit = 22038 
rwq = 0 
CCDLc_limit_alone = 21781 
WTRc_limit_alone = 2754 
RTWc_limit_alone = 3766 

Commands details: 
total_CMD = 293055 
n_nop = 161933 
Read = 65560 
Write = 0 
L2_Alloc = 0 
L2_WB = 62184 
n_act = 5012 
n_pre = 4996 
n_ref = 0 
n_req = 81142 
total_req = 127744 

Dual Bus Interface Util: 
issued_total_row = 10008 
issued_total_col = 127744 
Row_Bus_Util =  0.034151 
CoL_Bus_Util = 0.435905 
Either_Row_CoL_Bus_Util = 0.447431 
Issued_on_Two_Bus_Simul_Util = 0.022624 
issued_two_Eff = 0.050564 
queue_avg = 11.388876 


dram_util_bins: 0 0 0 0 0 0 0 0 0 0
dram_eff_bins: 0 0 0 0 0 0 0 0 0 0
mrqq: max=64 avg=11.3889
Memory Partition 20: 
Cache L2_bank_040:
MSHR contents

Cache L2_bank_041:
MSHR contents

In Dram Latency Queue (total = 0): 
DRAM[20]: 16 bks, busW=16 BL=2 CL=12, tRRD=3 tCCD=1, tRCD=12 tRAS=28 tRP=12 tRC=40
n_cmd=293055 n_nop=161922 n_act=4973 n_pre=4957 n_ref_event=0 n_req=81143 n_rd=65560 n_rd_L2_A=0 n_write=0 n_wr_bk=62172 bw_util=0.4359
n_activity=224058 dram_eff=0.5701
bk0: 4136a 238946i bk1: 4144a 237733i bk2: 4064a 238128i bk3: 4064a 239056i bk4: 4096a 240432i bk5: 4096a 238932i bk6: 4160a 239217i bk7: 4160a 236699i bk8: 4096a 240695i bk9: 4096a 238179i bk10: 4064a 240964i bk11: 4064a 238161i bk12: 4064a 241544i bk13: 4064a 238193i bk14: 4096a 239074i bk15: 4096a 235750i 

------------------------------------------------------------------------

Row_Buffer_Locality = 0.946907
Row_Buffer_Locality_read = 0.970988
Row_Buffer_Locality_write = 0.845332
Bank_Level_Parallism = 5.657826
Bank_Level_Parallism_Col = 5.308267
Bank_Level_Parallism_Ready = 4.403258
write_to_read_ratio_blp_rw_average = 0.400107
GrpLevelPara = 2.495661 

BW Util details:
bwutil = 0.435864 
total_CMD = 293055 
util_bw = 127732 
Wasted_Col = 31947 
Wasted_Row = 7926 
Idle = 125450 

BW Util Bottlenecks: 
RCDc_limit = 12048 
RCDWRc_limit = 650 
WTRc_limit = 2939 
RTWc_limit = 3440 
CCDLc_limit = 22450 
rwq = 0 
CCDLc_limit_alone = 22155 
WTRc_limit_alone = 2753 
RTWc_limit_alone = 3331 

Commands details: 
total_CMD = 293055 
n_nop = 161922 
Read = 65560 
Write = 0 
L2_Alloc = 0 
L2_WB = 62172 
n_act = 4973 
n_pre = 4957 
n_ref = 0 
n_req = 81143 
total_req = 127732 

Dual Bus Interface Util: 
issued_total_row = 9930 
issued_total_col = 127732 
Row_Bus_Util =  0.033884 
CoL_Bus_Util = 0.435864 
Either_Row_CoL_Bus_Util = 0.447469 
Issued_on_Two_Bus_Simul_Util = 0.022279 
issued_two_Eff = 0.049789 
queue_avg = 11.294245 


dram_util_bins: 0 0 0 0 0 0 0 0 0 0
dram_eff_bins: 0 0 0 0 0 0 0 0 0 0
mrqq: max=64 avg=11.2942
Memory Partition 21: 
Cache L2_bank_042:
MSHR contents

Cache L2_bank_043:
MSHR contents

In Dram Latency Queue (total = 0): 
DRAM[21]: 16 bks, busW=16 BL=2 CL=12, tRRD=3 tCCD=1, tRCD=12 tRAS=28 tRP=12 tRC=40
n_cmd=293055 n_nop=161817 n_act=5047 n_pre=5031 n_ref_event=0 n_req=81145 n_rd=65560 n_rd_L2_A=0 n_write=0 n_wr_bk=62180 bw_util=0.4359
n_activity=225915 dram_eff=0.5654
bk0: 4136a 239195i bk1: 4144a 239140i bk2: 4064a 240842i bk3: 4064a 238309i bk4: 4096a 239413i bk5: 4096a 237729i bk6: 4160a 238236i bk7: 4160a 237745i bk8: 4096a 238972i bk9: 4096a 237718i bk10: 4064a 238072i bk11: 4064a 238459i bk12: 4064a 240372i bk13: 4064a 238552i bk14: 4096a 237873i bk15: 4096a 236537i 

------------------------------------------------------------------------

Row_Buffer_Locality = 0.946748
Row_Buffer_Locality_read = 0.970302
Row_Buffer_Locality_write = 0.847411
Bank_Level_Parallism = 5.647451
Bank_Level_Parallism_Col = 5.303986
Bank_Level_Parallism_Ready = 4.448802
write_to_read_ratio_blp_rw_average = 0.403022
GrpLevelPara = 2.484702 

BW Util details:
bwutil = 0.435891 
total_CMD = 293055 
util_bw = 127740 
Wasted_Col = 32571 
Wasted_Row = 8406 
Idle = 124338 

BW Util Bottlenecks: 
RCDc_limit = 12619 
RCDWRc_limit = 695 
WTRc_limit = 2824 
RTWc_limit = 4076 
CCDLc_limit = 22688 
rwq = 0 
CCDLc_limit_alone = 22354 
WTRc_limit_alone = 2640 
RTWc_limit_alone = 3926 

Commands details: 
total_CMD = 293055 
n_nop = 161817 
Read = 65560 
Write = 0 
L2_Alloc = 0 
L2_WB = 62180 
n_act = 5047 
n_pre = 5031 
n_ref = 0 
n_req = 81145 
total_req = 127740 

Dual Bus Interface Util: 
issued_total_row = 10078 
issued_total_col = 127740 
Row_Bus_Util =  0.034389 
CoL_Bus_Util = 0.435891 
Either_Row_CoL_Bus_Util = 0.447827 
Issued_on_Two_Bus_Simul_Util = 0.022453 
issued_two_Eff = 0.050138 
queue_avg = 11.260292 


dram_util_bins: 0 0 0 0 0 0 0 0 0 0
dram_eff_bins: 0 0 0 0 0 0 0 0 0 0
mrqq: max=64 avg=11.2603
Memory Partition 22: 
Cache L2_bank_044:
MSHR contents

Cache L2_bank_045:
MSHR contents

In Dram Latency Queue (total = 0): 
DRAM[22]: 16 bks, busW=16 BL=2 CL=12, tRRD=3 tCCD=1, tRCD=12 tRAS=28 tRP=12 tRC=40
n_cmd=293055 n_nop=161907 n_act=4996 n_pre=4980 n_ref_event=0 n_req=81139 n_rd=65560 n_rd_L2_A=0 n_write=0 n_wr_bk=62160 bw_util=0.4358
n_activity=225745 dram_eff=0.5658
bk0: 4136a 240136i bk1: 4144a 239016i bk2: 4064a 240578i bk3: 4064a 237820i bk4: 4096a 239326i bk5: 4096a 237590i bk6: 4160a 238549i bk7: 4160a 236612i bk8: 4096a 238073i bk9: 4096a 237653i bk10: 4064a 239339i bk11: 4064a 237106i bk12: 4064a 240579i bk13: 4064a 239772i bk14: 4096a 239469i bk15: 4096a 237577i 

------------------------------------------------------------------------

Row_Buffer_Locality = 0.947324
Row_Buffer_Locality_read = 0.970668
Row_Buffer_Locality_write = 0.848842
Bank_Level_Parallism = 5.635952
Bank_Level_Parallism_Col = 5.301932
Bank_Level_Parallism_Ready = 4.429800
write_to_read_ratio_blp_rw_average = 0.402567
GrpLevelPara = 2.487861 

BW Util details:
bwutil = 0.435823 
total_CMD = 293055 
util_bw = 127720 
Wasted_Col = 32606 
Wasted_Row = 8374 
Idle = 124355 

BW Util Bottlenecks: 
RCDc_limit = 12365 
RCDWRc_limit = 523 
WTRc_limit = 2857 
RTWc_limit = 3854 
CCDLc_limit = 22796 
rwq = 0 
CCDLc_limit_alone = 22467 
WTRc_limit_alone = 2691 
RTWc_limit_alone = 3691 

Commands details: 
total_CMD = 293055 
n_nop = 161907 
Read = 65560 
Write = 0 
L2_Alloc = 0 
L2_WB = 62160 
n_act = 4996 
n_pre = 4980 
n_ref = 0 
n_req = 81139 
total_req = 127720 

Dual Bus Interface Util: 
issued_total_row = 9976 
issued_total_col = 127720 
Row_Bus_Util =  0.034041 
CoL_Bus_Util = 0.435823 
Either_Row_CoL_Bus_Util = 0.447520 
Issued_on_Two_Bus_Simul_Util = 0.022344 
issued_two_Eff = 0.049928 
queue_avg = 11.267738 


dram_util_bins: 0 0 0 0 0 0 0 0 0 0
dram_eff_bins: 0 0 0 0 0 0 0 0 0 0
mrqq: max=64 avg=11.2677
Memory Partition 23: 
Cache L2_bank_046:
MSHR contents

Cache L2_bank_047:
MSHR contents

In Dram Latency Queue (total = 0): 
DRAM[23]: 16 bks, busW=16 BL=2 CL=12, tRRD=3 tCCD=1, tRCD=12 tRAS=28 tRP=12 tRC=40
n_cmd=293055 n_nop=161912 n_act=4944 n_pre=4928 n_ref_event=0 n_req=81141 n_rd=65560 n_rd_L2_A=0 n_write=0 n_wr_bk=62188 bw_util=0.4359
n_activity=225866 dram_eff=0.5656
bk0: 4136a 240689i bk1: 4144a 240149i bk2: 4064a 240889i bk3: 4064a 239656i bk4: 4096a 239909i bk5: 4096a 238692i bk6: 4160a 239308i bk7: 4160a 238065i bk8: 4096a 238763i bk9: 4096a 239075i bk10: 4064a 239386i bk11: 4064a 238647i bk12: 4064a 240408i bk13: 4064a 239720i bk14: 4096a 238542i bk15: 4096a 237903i 

------------------------------------------------------------------------

Row_Buffer_Locality = 0.947267
Row_Buffer_Locality_read = 0.970851
Row_Buffer_Locality_write = 0.847816
Bank_Level_Parallism = 5.585739
Bank_Level_Parallism_Col = 5.261740
Bank_Level_Parallism_Ready = 4.401729
write_to_read_ratio_blp_rw_average = 0.394798
GrpLevelPara = 2.480837 

BW Util details:
bwutil = 0.435918 
total_CMD = 293055 
util_bw = 127748 
Wasted_Col = 32021 
Wasted_Row = 8550 
Idle = 124736 

BW Util Bottlenecks: 
RCDc_limit = 12318 
RCDWRc_limit = 462 
WTRc_limit = 2855 
RTWc_limit = 2584 
CCDLc_limit = 22664 
rwq = 0 
CCDLc_limit_alone = 22428 
WTRc_limit_alone = 2660 
RTWc_limit_alone = 2543 

Commands details: 
total_CMD = 293055 
n_nop = 161912 
Read = 65560 
Write = 0 
L2_Alloc = 0 
L2_WB = 62188 
n_act = 4944 
n_pre = 4928 
n_ref = 0 
n_req = 81141 
total_req = 127748 

Dual Bus Interface Util: 
issued_total_row = 9872 
issued_total_col = 127748 
Row_Bus_Util =  0.033687 
CoL_Bus_Util = 0.435918 
Either_Row_CoL_Bus_Util = 0.447503 
Issued_on_Two_Bus_Simul_Util = 0.022102 
issued_two_Eff = 0.049389 
queue_avg = 11.021443 


dram_util_bins: 0 0 0 0 0 0 0 0 0 0
dram_eff_bins: 0 0 0 0 0 0 0 0 0 0
mrqq: max=64 avg=11.0214

========= L2 cache stats =========
L2_cache_bank[0]: Access = 187319, Miss = 130944, Miss_rate = 0.699, Pending_hits = 20130, Reservation_fails = 19
L2_cache_bank[1]: Access = 187029, Miss = 131120, Miss_rate = 0.701, Pending_hits = 19562, Reservation_fails = 22
L2_cache_bank[2]: Access = 187328, Miss = 130944, Miss_rate = 0.699, Pending_hits = 20190, Reservation_fails = 74
L2_cache_bank[3]: Access = 187091, Miss = 131120, Miss_rate = 0.701, Pending_hits = 19748, Reservation_fails = 40
L2_cache_bank[4]: Access = 187285, Miss = 130944, Miss_rate = 0.699, Pending_hits = 20026, Reservation_fails = 2
L2_cache_bank[5]: Access = 187207, Miss = 131120, Miss_rate = 0.700, Pending_hits = 19591, Reservation_fails = 19
L2_cache_bank[6]: Access = 187317, Miss = 130944, Miss_rate = 0.699, Pending_hits = 20231, Reservation_fails = 21
L2_cache_bank[7]: Access = 187231, Miss = 131120, Miss_rate = 0.700, Pending_hits = 19672, Reservation_fails = 23
L2_cache_bank[8]: Access = 187304, Miss = 130944, Miss_rate = 0.699, Pending_hits = 20214, Reservation_fails = 0
L2_cache_bank[9]: Access = 187219, Miss = 131120, Miss_rate = 0.700, Pending_hits = 19809, Reservation_fails = 404
L2_cache_bank[10]: Access = 187268, Miss = 130944, Miss_rate = 0.699, Pending_hits = 20179, Reservation_fails = 39
L2_cache_bank[11]: Access = 187150, Miss = 131120, Miss_rate = 0.701, Pending_hits = 19478, Reservation_fails = 30
L2_cache_bank[12]: Access = 187224, Miss = 130944, Miss_rate = 0.699, Pending_hits = 20358, Reservation_fails = 597
L2_cache_bank[13]: Access = 187235, Miss = 131120, Miss_rate = 0.700, Pending_hits = 19639, Reservation_fails = 56
L2_cache_bank[14]: Access = 187269, Miss = 130944, Miss_rate = 0.699, Pending_hits = 20159, Reservation_fails = 8
L2_cache_bank[15]: Access = 187131, Miss = 131120, Miss_rate = 0.701, Pending_hits = 19682, Reservation_fails = 3
L2_cache_bank[16]: Access = 93514, Miss = 65472, Miss_rate = 0.700, Pending_hits = 8262, Reservation_fails = 0
L2_cache_bank[17]: Access = 93552, Miss = 65560, Miss_rate = 0.701, Pending_hits = 8039, Reservation_fails = 0
L2_cache_bank[18]: Access = 93461, Miss = 65472, Miss_rate = 0.701, Pending_hits = 8243, Reservation_fails = 0
L2_cache_bank[19]: Access = 93535, Miss = 65560, Miss_rate = 0.701, Pending_hits = 8152, Reservation_fails = 0
L2_cache_bank[20]: Access = 93442, Miss = 65472, Miss_rate = 0.701, Pending_hits = 8065, Reservation_fails = 0
L2_cache_bank[21]: Access = 93515, Miss = 65560, Miss_rate = 0.701, Pending_hits = 8052, Reservation_fails = 0
L2_cache_bank[22]: Access = 93515, Miss = 65472, Miss_rate = 0.700, Pending_hits = 8187, Reservation_fails = 0
L2_cache_bank[23]: Access = 93482, Miss = 65560, Miss_rate = 0.701, Pending_hits = 8098, Reservation_fails = 0
L2_cache_bank[24]: Access = 93471, Miss = 65472, Miss_rate = 0.700, Pending_hits = 8155, Reservation_fails = 0
L2_cache_bank[25]: Access = 93509, Miss = 65560, Miss_rate = 0.701, Pending_hits = 8171, Reservation_fails = 0
L2_cache_bank[26]: Access = 93471, Miss = 65472, Miss_rate = 0.700, Pending_hits = 8171, Reservation_fails = 0
L2_cache_bank[27]: Access = 93549, Miss = 65560, Miss_rate = 0.701, Pending_hits = 8016, Reservation_fails = 0
L2_cache_bank[28]: Access = 93511, Miss = 65472, Miss_rate = 0.700, Pending_hits = 8284, Reservation_fails = 0
L2_cache_bank[29]: Access = 93550, Miss = 65560, Miss_rate = 0.701, Pending_hits = 8137, Reservation_fails = 0
L2_cache_bank[30]: Access = 93496, Miss = 65472, Miss_rate = 0.700, Pending_hits = 8163, Reservation_fails = 0
L2_cache_bank[31]: Access = 93546, Miss = 65560, Miss_rate = 0.701, Pending_hits = 7978, Reservation_fails = 0
L2_cache_bank[32]: Access = 93472, Miss = 65472, Miss_rate = 0.700, Pending_hits = 7796, Reservation_fails = 0
L2_cache_bank[33]: Access = 93537, Miss = 65592, Miss_rate = 0.701, Pending_hits = 7880, Reservation_fails = 0
L2_cache_bank[34]: Access = 93530, Miss = 65472, Miss_rate = 0.700, Pending_hits = 7957, Reservation_fails = 0
L2_cache_bank[35]: Access = 93546, Miss = 65592, Miss_rate = 0.701, Pending_hits = 7884, Reservation_fails = 9
L2_cache_bank[36]: Access = 93542, Miss = 65472, Miss_rate = 0.700, Pending_hits = 7866, Reservation_fails = 0
L2_cache_bank[37]: Access = 93567, Miss = 65592, Miss_rate = 0.701, Pending_hits = 7917, Reservation_fails = 0
L2_cache_bank[38]: Access = 93516, Miss = 65472, Miss_rate = 0.700, Pending_hits = 7849, Reservation_fails = 11
L2_cache_bank[39]: Access = 93542, Miss = 65592, Miss_rate = 0.701, Pending_hits = 7771, Reservation_fails = 0
L2_cache_bank[40]: Access = 93504, Miss = 65472, Miss_rate = 0.700, Pending_hits = 7859, Reservation_fails = 0
L2_cache_bank[41]: Access = 93528, Miss = 65592, Miss_rate = 0.701, Pending_hits = 7890, Reservation_fails = 0
L2_cache_bank[42]: Access = 93453, Miss = 65472, Miss_rate = 0.701, Pending_hits = 7800, Reservation_fails = 0
L2_cache_bank[43]: Access = 93508, Miss = 65592, Miss_rate = 0.701, Pending_hits = 7710, Reservation_fails = 0
L2_cache_bank[44]: Access = 93441, Miss = 65472, Miss_rate = 0.701, Pending_hits = 7924, Reservation_fails = 0
L2_cache_bank[45]: Access = 93524, Miss = 65592, Miss_rate = 0.701, Pending_hits = 7913, Reservation_fails = 23
L2_cache_bank[46]: Access = 93467, Miss = 65472, Miss_rate = 0.700, Pending_hits = 7883, Reservation_fails = 0
L2_cache_bank[47]: Access = 93531, Miss = 65592, Miss_rate = 0.701, Pending_hits = 7757, Reservation_fails = 0
L2_total_cache_accesses = 5987934
L2_total_cache_misses = 4193280
L2_total_cache_miss_rate = 0.7003
L2_total_cache_pending_hits = 574497
L2_total_cache_reservation_fails = 1400
L2_total_cache_breakdown:
	L2_cache_stats_breakdown[GLOBAL_ACC_R][HIT] = 1220157
	L2_cache_stats_breakdown[GLOBAL_ACC_R][HIT_RESERVED] = 574497
	L2_cache_stats_breakdown[GLOBAL_ACC_R][MISS] = 524288
	L2_cache_stats_breakdown[GLOBAL_ACC_R][RESERVATION_FAIL] = 1400
	L2_cache_stats_breakdown[GLOBAL_ACC_R][SECTOR_MISS] = 1572864
	L2_cache_stats_breakdown[GLOBAL_ACC_R][MSHR_HIT] = 574497
	L2_cache_stats_breakdown[LOCAL_ACC_R][HIT] = 0
	L2_cache_stats_breakdown[LOCAL_ACC_R][HIT_RESERVED] = 0
	L2_cache_stats_breakdown[LOCAL_ACC_R][MISS] = 0
	L2_cache_stats_breakdown[LOCAL_ACC_R][RESERVATION_FAIL] = 0
	L2_cache_stats_breakdown[LOCAL_ACC_R][SECTOR_MISS] = 0
	L2_cache_stats_breakdown[LOCAL_ACC_R][MSHR_HIT] = 0
	L2_cache_stats_breakdown[CONST_ACC_R][HIT] = 0
	L2_cache_stats_breakdown[CONST_ACC_R][HIT_RESERVED] = 0
	L2_cache_stats_breakdown[CONST_ACC_R][MISS] = 0
	L2_cache_stats_breakdown[CONST_ACC_R][RESERVATION_FAIL] = 0
	L2_cache_stats_breakdown[CONST_ACC_R][SECTOR_MISS] = 0
	L2_cache_stats_breakdown[CONST_ACC_R][MSHR_HIT] = 0
	L2_cache_stats_breakdown[TEXTURE_ACC_R][HIT] = 0
	L2_cache_stats_breakdown[TEXTURE_ACC_R][HIT_RESERVED] = 0
	L2_cache_stats_breakdown[TEXTURE_ACC_R][MISS] = 0
	L2_cache_stats_breakdown[TEXTURE_ACC_R][RESERVATION_FAIL] = 0
	L2_cache_stats_breakdown[TEXTURE_ACC_R][SECTOR_MISS] = 0
	L2_cache_stats_breakdown[TEXTURE_ACC_R][MSHR_HIT] = 0
	L2_cache_stats_breakdown[GLOBAL_ACC_W][HIT] = 0
	L2_cache_stats_breakdown[GLOBAL_ACC_W][HIT_RESERVED] = 0
	L2_cache_stats_breakdown[GLOBAL_ACC_W][MISS] = 524032
	L2_cache_stats_breakdown[GLOBAL_ACC_W][RESERVATION_FAIL] = 0
	L2_cache_stats_breakdown[GLOBAL_ACC_W][SECTOR_MISS] = 1572096
	L2_cache_stats_breakdown[GLOBAL_ACC_W][MSHR_HIT] = 0
	L2_cache_stats_breakdown[LOCAL_ACC_W][HIT] = 0
	L2_cache_stats_breakdown[LOCAL_ACC_W][HIT_RESERVED] = 0
	L2_cache_stats_breakdown[LOCAL_ACC_W][MISS] = 0
	L2_cache_stats_breakdown[LOCAL_ACC_W][RESERVATION_FAIL] = 0
	L2_cache_stats_breakdown[LOCAL_ACC_W][SECTOR_MISS] = 0
	L2_cache_stats_breakdown[LOCAL_ACC_W][MSHR_HIT] = 0
	L2_cache_stats_breakdown[L1_WRBK_ACC][HIT] = 0
	L2_cache_stats_breakdown[L1_WRBK_ACC][HIT_RESERVED] = 0
	L2_cache_stats_breakdown[L1_WRBK_ACC][MISS] = 0
	L2_cache_stats_breakdown[L1_WRBK_ACC][RESERVATION_FAIL] = 0
	L2_cache_stats_breakdown[L1_WRBK_ACC][SECTOR_MISS] = 0
	L2_cache_stats_breakdown[L1_WRBK_ACC][MSHR_HIT] = 0
	L2_cache_stats_breakdown[L2_WRBK_ACC][HIT] = 0
	L2_cache_stats_breakdown[L2_WRBK_ACC][HIT_RESERVED] = 0
	L2_cache_stats_breakdown[L2_WRBK_ACC][MISS] = 0
	L2_cache_stats_breakdown[L2_WRBK_ACC][RESERVATION_FAIL] = 0
	L2_cache_stats_breakdown[L2_WRBK_ACC][SECTOR_MISS] = 0
	L2_cache_stats_breakdown[L2_WRBK_ACC][MSHR_HIT] = 0
	L2_cache_stats_breakdown[INST_ACC_R][HIT] = 0
	L2_cache_stats_breakdown[INST_ACC_R][HIT_RESERVED] = 0
	L2_cache_stats_breakdown[INST_ACC_R][MISS] = 0
	L2_cache_stats_breakdown[INST_ACC_R][RESERVATION_FAIL] = 0
	L2_cache_stats_breakdown[INST_ACC_R][SECTOR_MISS] = 0
	L2_cache_stats_breakdown[INST_ACC_R][MSHR_HIT] = 0
	L2_cache_stats_breakdown[L1_WR_ALLOC_R][HIT] = 0
	L2_cache_stats_breakdown[L1_WR_ALLOC_R][HIT_RESERVED] = 0
	L2_cache_stats_breakdown[L1_WR_ALLOC_R][MISS] = 0
	L2_cache_stats_breakdown[L1_WR_ALLOC_R][RESERVATION_FAIL] = 0
	L2_cache_stats_breakdown[L1_WR_ALLOC_R][SECTOR_MISS] = 0
	L2_cache_stats_breakdown[L1_WR_ALLOC_R][MSHR_HIT] = 0
	L2_cache_stats_breakdown[L2_WR_ALLOC_R][HIT] = 0
	L2_cache_stats_breakdown[L2_WR_ALLOC_R][HIT_RESERVED] = 0
	L2_cache_stats_breakdown[L2_WR_ALLOC_R][MISS] = 0
	L2_cache_stats_breakdown[L2_WR_ALLOC_R][RESERVATION_FAIL] = 0
	L2_cache_stats_breakdown[L2_WR_ALLOC_R][SECTOR_MISS] = 0
	L2_cache_stats_breakdown[L2_WR_ALLOC_R][MSHR_HIT] = 0
	L2_cache_stats_breakdown[GLOBAL_ACC_R][TOTAL_ACCESS] = 3891806
	L2_cache_stats_breakdown[GLOBAL_ACC_W][TOTAL_ACCESS] = 2096128
L2_total_cache_reservation_fail_breakdown:
	L2_cache_stats_fail_breakdown[GLOBAL_ACC_R][MSHR_ENRTY_FAIL] = 1400
L2_cache_data_port_util = 0.116
L2_cache_fill_port_util = 0.106

icnt_total_pkts_mem_to_simt=5987934
icnt_total_pkts_simt_to_mem=5987934
LD_mem_lat_dist  0 0 0 0 0 0 0 0 0 0 0 0 0 0 0 0 0 0 0 0 0 0 0 0 0 0 0
ST_mem_lat_dist  0 0 0 0 0 0 0 0 0 0 0 0 0 0 0 0 0 0 0 0 0 0 0 0 0 0 0
----------------------------Interconnect-DETAILS--------------------------------
Req_Network_injected_packets_num = 5987934
Req_Network_cycles = 413725
Req_Network_injected_packets_per_cycle =      14.4732 
Req_Network_conflicts_per_cycle =      14.5082
Req_Network_conflicts_per_cycle_util =      14.5441
Req_Bank_Level_Parallism =      14.5091
Req_Network_in_buffer_full_per_cycle =       0.0000
Req_Network_in_buffer_avg_util =      27.5696
Req_Network_out_buffer_full_per_cycle =       0.0919
Req_Network_out_buffer_avg_util =      42.2064

Reply_Network_injected_packets_num = 5987934
Reply_Network_cycles = 413725
Reply_Network_injected_packets_per_cycle =       14.4732
Reply_Network_conflicts_per_cycle =        6.5821
Reply_Network_conflicts_per_cycle_util =       6.6011
Reply_Bank_Level_Parallism =      14.5149
Reply_Network_in_buffer_full_per_cycle =       0.0000
Reply_Network_in_buffer_avg_util =       2.0068
Reply_Network_out_buffer_full_per_cycle =       0.0000
Reply_Network_out_buffer_avg_util =       0.3618
----------------------------END-of-Interconnect-DETAILS-------------------------


gpgpu_simulation_time = 0 days, 1 hrs, 33 min, 31 sec (5611 sec)
gpgpu_simulation_rate = 140450 (inst/sec)
gpgpu_simulation_rate = 73 (cycle/sec)
gpgpu_silicon_slowdown = 16438356x
GPGPU-Sim: synchronize waiting for inactive GPU simulation
GPGPU-Sim API: Stream Manager State
GPGPU-Sim: detected inactive GPU simulation thread
GPU Runtime: 5608.498993s
CPU Runtime: 0.568519s
Non-Matching CPU-GPU Outputs Beyond Error Threshold of 0.05 Percent: 0
GPGPU-Sim: *** exit detected ***
