self exe links to: /workspace/gpgpu-sim_simulations/benchmarks/src/cuda/bin/release/ATAX
self exe links to: /workspace/gpgpu-sim_simulations/benchmarks/src/cuda/bin/release/ATAX
10.1


        *** GPGPU-Sim Simulator Version 4.2.0  [build gpgpu-sim_git-commit-a4ce3fe_modified_0.0] ***


GPGPU-Sim PTX: simulation mode 0 (can change with PTX_SIM_MODE_FUNC environment variable:
               1=functional simulation only, 0=detailed performance simulator)
GPGPU-Sim PTX: overriding embedded ptx with ptx file (PTX_SIM_USE_PTX_FILE is set)
GPGPU-Sim: Configuration options:

-save_embedded_ptx                      0 # saves ptx files embedded in binary as <n>.ptx
-keep                                   0 # keep intermediate files created by GPGPU-Sim when interfacing with external programs
-gpgpu_ptx_save_converted_ptxplus                    0 # Saved converted ptxplus to a file
-gpgpu_occupancy_sm_number                   70 # The SM number to pass to ptxas when getting register usage for computing GPU occupancy. This parameter is required in the config.
-ptx_opcode_latency_int      4,13,4,5,145,32 # Opcode latencies for integers <ADD,MAX,MUL,MAD,DIV,SHFL>Default 1,1,19,25,145,32
-ptx_opcode_latency_fp          4,13,4,5,39 # Opcode latencies for single precision floating points <ADD,MAX,MUL,MAD,DIV>Default 1,1,1,1,30
-ptx_opcode_latency_dp         8,19,8,8,330 # Opcode latencies for double precision floating points <ADD,MAX,MUL,MAD,DIV>Default 8,8,8,8,335
-ptx_opcode_latency_sfu                  100 # Opcode latencies for SFU instructionsDefault 8
-ptx_opcode_latency_tesnor                   64 # Opcode latencies for Tensor instructionsDefault 64
-ptx_opcode_initiation_int          2,2,2,2,8,4 # Opcode initiation intervals for integers <ADD,MAX,MUL,MAD,DIV,SHFL>Default 1,1,4,4,32,4
-ptx_opcode_initiation_fp            2,2,2,2,4 # Opcode initiation intervals for single precision floating points <ADD,MAX,MUL,MAD,DIV>Default 1,1,1,1,5
-ptx_opcode_initiation_dp          4,4,4,4,130 # Opcode initiation intervals for double precision floating points <ADD,MAX,MUL,MAD,DIV>Default 8,8,8,8,130
-ptx_opcode_initiation_sfu                    8 # Opcode initiation intervals for sfu instructionsDefault 8
-ptx_opcode_initiation_tensor                   64 # Opcode initiation intervals for tensor instructionsDefault 64
-cdp_latency         7200,8000,100,12000,1600 # CDP API latency <cudaStreamCreateWithFlags, cudaGetParameterBufferV2_init_perWarp, cudaGetParameterBufferV2_perKernel, cudaLaunchDeviceV2_init_perWarp, cudaLaunchDevicV2_perKernel>Default 7200,8000,100,12000,1600
-network_mode                           2 # Interconnection network mode
-inter_config_file                   mesh # Interconnection network config file
-icnt_in_buffer_limit                  512 # in_buffer_limit
-icnt_out_buffer_limit                  512 # out_buffer_limit
-icnt_subnets                           2 # subnets
-icnt_arbiter_algo                      1 # arbiter_algo
-icnt_verbose                           0 # inct_verbose
-icnt_grant_cycles                      1 # grant_cycles
-gpgpu_ptx_use_cuobjdump                    1 # Use cuobjdump to extract ptx and sass from binaries
-gpgpu_experimental_lib_support                    0 # Try to extract code from cuda libraries [Broken because of unknown cudaGetExportTable]
-checkpoint_option                      0 #  checkpointing flag (0 = no checkpoint)
-checkpoint_kernel                      1 #  checkpointing during execution of which kernel (1- 1st kernel)
-checkpoint_CTA                         0 #  checkpointing after # of CTA (< less than total CTA)
-resume_option                          0 #  resume flag (0 = no resume)
-resume_kernel                          0 #  Resume from which kernel (1= 1st kernel)
-resume_CTA                             0 #  resume from which CTA 
-checkpoint_CTA_t                       0 #  resume from which CTA 
-checkpoint_insn_Y                      0 #  resume from which CTA 
-gpgpu_ptx_convert_to_ptxplus                    0 # Convert SASS (native ISA) to ptxplus and run ptxplus
-gpgpu_ptx_force_max_capability                   70 # Force maximum compute capability
-gpgpu_ptx_inst_debug_to_file                    0 # Dump executed instructions' debug information to file
-gpgpu_ptx_inst_debug_file       inst_debug.txt # Executed instructions' debug output file
-gpgpu_ptx_inst_debug_thread_uid                    1 # Thread UID for executed instructions' debug output
-gpgpu_simd_model                       1 # 1 = post-dominator
-gpgpu_shader_core_pipeline              2048:32 # shader core pipeline config, i.e., {<nthread>:<warpsize>}
-gpgpu_tex_cache:l1  N:4:128:256,L:R:m:N:L,T:512:8,128:2 # per-shader L1 texture cache  (READ-ONLY) config  {<nsets>:<bsize>:<assoc>,<rep>:<wr>:<alloc>:<wr_alloc>,<mshr>:<N>:<merge>,<mq>:<rf>}
-gpgpu_const_cache:l1 N:128:64:8,L:R:f:N:L,S:2:64,4 # per-shader L1 constant memory cache  (READ-ONLY) config  {<nsets>:<bsize>:<assoc>,<rep>:<wr>:<alloc>:<wr_alloc>,<mshr>:<N>:<merge>,<mq>} 
-gpgpu_cache:il1     N:64:128:16,L:R:f:N:L,S:2:48,4 # shader L1 instruction cache config  {<nsets>:<bsize>:<assoc>,<rep>:<wr>:<alloc>:<wr_alloc>,<mshr>:<N>:<merge>,<mq>} 
-gpgpu_cache:dl1     S:4:128:64,L:T:m:L:L,A:512:8,16:0,32 # per-shader L1 data cache config  {<nsets>:<bsize>:<assoc>,<rep>:<wr>:<alloc>:<wr_alloc>,<mshr>:<N>:<merge>,<mq> | none}
-gpgpu_l1_cache_write_ratio                   25 # L1D write ratio
-gpgpu_l1_banks                         4 # The number of L1 cache banks
-gpgpu_l1_banks_byte_interleaving                   32 # l1 banks byte interleaving granularity
-gpgpu_l1_banks_hashing_function                    0 # l1 banks hashing function
-gpgpu_l1_latency                      20 # L1 Hit Latency
-gpgpu_smem_latency                    20 # smem Latency
-gpgpu_cache:dl1PrefL1                 none # per-shader L1 data cache config  {<nsets>:<bsize>:<assoc>,<rep>:<wr>:<alloc>:<wr_alloc>,<mshr>:<N>:<merge>,<mq> | none}
-gpgpu_cache:dl1PrefShared                 none # per-shader L1 data cache config  {<nsets>:<bsize>:<assoc>,<rep>:<wr>:<alloc>:<wr_alloc>,<mshr>:<N>:<merge>,<mq> | none}
-gpgpu_gmem_skip_L1D                    0 # global memory access skip L1D cache (implements -Xptxas -dlcm=cg, default=no skip)
-gpgpu_perfect_mem                      0 # enable perfect memory mode (no cache miss)
-n_regfile_gating_group                    4 # group of lanes that should be read/written together)
-gpgpu_clock_gated_reg_file                    0 # enable clock gated reg file for power calculations
-gpgpu_clock_gated_lanes                    0 # enable clock gated lanes for power calculations
-gpgpu_shader_registers                65536 # Number of registers per shader core. Limits number of concurrent CTAs. (default 8192)
-gpgpu_registers_per_block                65536 # Maximum number of registers per CTA. (default 8192)
-gpgpu_ignore_resources_limitation                    0 # gpgpu_ignore_resources_limitation (default 0)
-gpgpu_shader_cta                      32 # Maximum number of concurrent CTAs in shader (default 32)
-gpgpu_num_cta_barriers                   16 # Maximum number of named barriers per CTA (default 16)
-gpgpu_n_clusters                      40 # number of processing clusters
-gpgpu_n_cores_per_cluster                    2 # number of simd cores per cluster
-gpgpu_n_cluster_ejection_buffer_size                   32 # number of packets in ejection buffer
-gpgpu_n_ldst_response_buffer_size                    2 # number of response packets in ld/st unit ejection buffer
-gpgpu_shmem_per_block                65536 # Size of shared memory per thread block or CTA (default 48kB)
-gpgpu_shmem_size                   98304 # Size of shared memory per shader core (default 16kB)
-gpgpu_shmem_option       0,8,16,32,64,96 # Option list of shared memory sizes
-gpgpu_unified_l1d_size                  128 # Size of unified data cache(L1D + shared memory) in KB
-gpgpu_adaptive_cache_config                    1 # adaptive_cache_config
-gpgpu_shmem_sizeDefault                98304 # Size of shared memory per shader core (default 16kB)
-gpgpu_shmem_size_PrefL1                16384 # Size of shared memory per shader core (default 16kB)
-gpgpu_shmem_size_PrefShared                16384 # Size of shared memory per shader core (default 16kB)
-gpgpu_shmem_num_banks                   32 # Number of banks in the shared memory in each shader core (default 16)
-gpgpu_shmem_limited_broadcast                    0 # Limit shared memory to do one broadcast per cycle (default on)
-gpgpu_shmem_warp_parts                    1 # Number of portions a warp is divided into for shared memory bank conflict check 
-gpgpu_mem_unit_ports                    1 # The number of memory transactions allowed per core cycle
-gpgpu_shmem_warp_parts                    1 # Number of portions a warp is divided into for shared memory bank conflict check 
-gpgpu_warpdistro_shader                   -1 # Specify which shader core to collect the warp size distribution from
-gpgpu_warp_issue_shader                    0 # Specify which shader core to collect the warp issue distribution from
-gpgpu_local_mem_map                    1 # Mapping from local memory space address to simulated GPU physical address space (default = enabled)
-gpgpu_num_reg_banks                    8 # Number of register banks (default = 8)
-gpgpu_reg_bank_use_warp_id                    0 # Use warp ID in mapping registers to banks (default = off)
-gpgpu_sub_core_model                    1 # Sub Core Volta/Pascal model (default = off)
-gpgpu_enable_specialized_operand_collector                    0 # enable_specialized_operand_collector
-gpgpu_operand_collector_num_units_sp                    4 # number of collector units (default = 4)
-gpgpu_operand_collector_num_units_dp                    0 # number of collector units (default = 0)
-gpgpu_operand_collector_num_units_sfu                    4 # number of collector units (default = 4)
-gpgpu_operand_collector_num_units_int                    0 # number of collector units (default = 0)
-gpgpu_operand_collector_num_units_tensor_core                    4 # number of collector units (default = 4)
-gpgpu_operand_collector_num_units_mem                    2 # number of collector units (default = 2)
-gpgpu_operand_collector_num_units_gen                    8 # number of collector units (default = 0)
-gpgpu_operand_collector_num_in_ports_sp                    1 # number of collector unit in ports (default = 1)
-gpgpu_operand_collector_num_in_ports_dp                    0 # number of collector unit in ports (default = 0)
-gpgpu_operand_collector_num_in_ports_sfu                    1 # number of collector unit in ports (default = 1)
-gpgpu_operand_collector_num_in_ports_int                    0 # number of collector unit in ports (default = 0)
-gpgpu_operand_collector_num_in_ports_tensor_core                    1 # number of collector unit in ports (default = 1)
-gpgpu_operand_collector_num_in_ports_mem                    1 # number of collector unit in ports (default = 1)
-gpgpu_operand_collector_num_in_ports_gen                    8 # number of collector unit in ports (default = 0)
-gpgpu_operand_collector_num_out_ports_sp                    1 # number of collector unit in ports (default = 1)
-gpgpu_operand_collector_num_out_ports_dp                    0 # number of collector unit in ports (default = 0)
-gpgpu_operand_collector_num_out_ports_sfu                    1 # number of collector unit in ports (default = 1)
-gpgpu_operand_collector_num_out_ports_int                    0 # number of collector unit in ports (default = 0)
-gpgpu_operand_collector_num_out_ports_tensor_core                    1 # number of collector unit in ports (default = 1)
-gpgpu_operand_collector_num_out_ports_mem                    1 # number of collector unit in ports (default = 1)
-gpgpu_operand_collector_num_out_ports_gen                    8 # number of collector unit in ports (default = 0)
-gpgpu_coalesce_arch                   60 # Coalescing arch (GT200 = 13, Fermi = 20)
-gpgpu_num_sched_per_core                    4 # Number of warp schedulers per core
-gpgpu_max_insn_issue_per_warp                    1 # Max number of instructions that can be issued per warp in one cycle by scheduler (either 1 or 2)
-gpgpu_dual_issue_diff_exec_units                    1 # should dual issue use two different execution unit resources (Default = 1)
-gpgpu_simt_core_sim_order                    1 # Select the simulation order of cores in a cluster (0=Fix, 1=Round-Robin)
-gpgpu_pipeline_widths 4,4,4,4,4,4,4,4,4,4,8,4,4 # Pipeline widths ID_OC_SP,ID_OC_DP,ID_OC_INT,ID_OC_SFU,ID_OC_MEM,OC_EX_SP,OC_EX_DP,OC_EX_INT,OC_EX_SFU,OC_EX_MEM,EX_WB,ID_OC_TENSOR_CORE,OC_EX_TENSOR_CORE
-gpgpu_tensor_core_avail                    1 # Tensor Core Available (default=0)
-gpgpu_num_sp_units                     4 # Number of SP units (default=1)
-gpgpu_num_dp_units                     4 # Number of DP units (default=0)
-gpgpu_num_int_units                    4 # Number of INT units (default=0)
-gpgpu_num_sfu_units                    4 # Number of SF units (default=1)
-gpgpu_num_tensor_core_units                    4 # Number of tensor_core units (default=1)
-gpgpu_num_mem_units                    1 # Number if ldst units (default=1) WARNING: not hooked up to anything
-gpgpu_scheduler                      lrr # Scheduler configuration: < lrr | gto | two_level_active > If two_level_active:<num_active_warps>:<inner_prioritization>:<outer_prioritization>For complete list of prioritization values see shader.h enum scheduler_prioritization_typeDefault: gto
-gpgpu_concurrent_kernel_sm                    0 # Support concurrent kernels on a SM (default = disabled)
-gpgpu_perfect_inst_const_cache                    1 # perfect inst and const cache mode, so all inst and const hits in the cache(default = disabled)
-gpgpu_inst_fetch_throughput                    4 # the number of fetched intruction per warp each cycle
-gpgpu_reg_file_port_throughput                    2 # the number ports of the register file
-specialized_unit_1         0,4,4,4,4,BRA # specialized unit config {<enabled>,<num_units>:<latency>:<initiation>,<ID_OC_SPEC>:<OC_EX_SPEC>,<NAME>}
-specialized_unit_2         0,4,4,4,4,BRA # specialized unit config {<enabled>,<num_units>:<latency>:<initiation>,<ID_OC_SPEC>:<OC_EX_SPEC>,<NAME>}
-specialized_unit_3         0,4,4,4,4,BRA # specialized unit config {<enabled>,<num_units>:<latency>:<initiation>,<ID_OC_SPEC>:<OC_EX_SPEC>,<NAME>}
-specialized_unit_4         0,4,4,4,4,BRA # specialized unit config {<enabled>,<num_units>:<latency>:<initiation>,<ID_OC_SPEC>:<OC_EX_SPEC>,<NAME>}
-specialized_unit_5         0,4,4,4,4,BRA # specialized unit config {<enabled>,<num_units>:<latency>:<initiation>,<ID_OC_SPEC>:<OC_EX_SPEC>,<NAME>}
-specialized_unit_6         0,4,4,4,4,BRA # specialized unit config {<enabled>,<num_units>:<latency>:<initiation>,<ID_OC_SPEC>:<OC_EX_SPEC>,<NAME>}
-specialized_unit_7         0,4,4,4,4,BRA # specialized unit config {<enabled>,<num_units>:<latency>:<initiation>,<ID_OC_SPEC>:<OC_EX_SPEC>,<NAME>}
-specialized_unit_8         0,4,4,4,4,BRA # specialized unit config {<enabled>,<num_units>:<latency>:<initiation>,<ID_OC_SPEC>:<OC_EX_SPEC>,<NAME>}
-gpgpu_perf_sim_memcpy                    1 # Fill the L2 cache on memcpy
-gpgpu_simple_dram_model                    0 # simple_dram_model with fixed latency and BW
-gpgpu_dram_scheduler                    1 # 0 = fifo, 1 = FR-FCFS (defaul)
-gpgpu_dram_partition_queues          64:64:64:64 # i2$:$2d:d2$:$2i
-l2_ideal                               0 # Use a ideal L2 cache that always hit
-gpgpu_cache:dl2     S:32:128:24,L:B:m:L:P,A:192:4,32:0,32 # unified banked L2 data cache config  {<nsets>:<bsize>:<assoc>,<rep>:<wr>:<alloc>:<wr_alloc>,<mshr>:<N>:<merge>,<mq>}
-gpgpu_cache:dl2_texture_only                    0 # L2 cache used for texture only
-gpgpu_n_mem                           24 # number of memory modules (e.g. memory controllers) in gpu
-gpgpu_n_sub_partition_per_mchannel                    2 # number of memory subpartition in each memory module
-gpgpu_n_mem_per_ctrlr                    1 # number of memory chips per memory controller
-gpgpu_memlatency_stat                   14 # track and display latency statistics 0x2 enables MC, 0x4 enables queue logs
-gpgpu_frfcfs_dram_sched_queue_size                   64 # 0 = unlimited (default); # entries per chip
-gpgpu_dram_return_queue_size                  192 # 0 = unlimited (default); # entries per chip
-gpgpu_dram_buswidth                   16 # default = 4 bytes (8 bytes per cycle at DDR)
-gpgpu_dram_burst_length                    2 # Burst length of each DRAM request (default = 4 data bus cycle)
-dram_data_command_freq_ratio                    2 # Frequency ratio between DRAM data bus and command bus (default = 2 times, i.e. DDR)
-gpgpu_dram_timing_opt nbk=16:CCD=1:RRD=3:RCD=12:RAS=28:RP=12:RC=40: CL=12:WL=2:CDLR=3:WR=10:nbkgrp=4:CCDL=2:RTPL=3 # DRAM timing parameters = {nbk:tCCD:tRRD:tRCD:tRAS:tRP:tRC:CL:WL:tCDLR:tWR:nbkgrp:tCCDL:tRTPL}
-gpgpu_l2_rop_latency                  160 # ROP queue latency (default 85)
-dram_latency                         100 # DRAM latency (default 30)
-dram_dual_bus_interface                  257 # dual_bus_interface (default = 0) 
-dram_bnk_indexing_policy                    1 # dram_bnk_indexing_policy (0 = normal indexing, 1 = Xoring with the higher bits) (Default = 0)
-dram_bnkgrp_indexing_policy                    1 # dram_bnkgrp_indexing_policy (0 = take higher bits, 1 = take lower bits) (Default = 0)
-dram_seperate_write_queue_enable                    1 # Seperate_Write_Queue_Enable
-dram_write_queue_size           128:108:32 # Write_Queue_Size
-dram_elimnate_rw_turnaround                    0 # elimnate_rw_turnaround i.e set tWTR and tRTW = 0
-icnt_flit_size                        40 # icnt_flit_size
-SST_mode                               0 # SST mode
-gpgpu_mem_addr_mapping dramid@8;00000000.00000000.00000000.00000000.0000RRRR.RRRRRRRR.RBBBCCCB.CCCSSSSS # mapping memory address to dram model {dramid@<start bit>;<memory address map>}
-gpgpu_mem_addr_test                    0 # run sweep test to check address mapping for aliased address
-gpgpu_mem_address_mask                    1 # 0 = old addressing mask, 1 = new addressing mask, 2 = new add. mask + flipped bank sel and chip sel bits
-gpgpu_memory_partition_indexing                    2 # 0 = no indexing, 1 = bitwise xoring, 2 = IPoly, 3 = custom indexing
-accelwattch_xml_file accelwattch_sass_sim.xml # AccelWattch XML file
-power_simulation_enabled                    0 # Turn on power simulator (1=On, 0=Off)
-power_per_cycle_dump                    0 # Dump detailed power output each cycle
-hw_perf_file_name            hw_perf.csv # Hardware Performance Statistics file
-hw_perf_bench_name                       # Kernel Name in Hardware Performance Statistics file
-power_simulation_mode                    0 # Switch performance counter input for power simulation (0=Sim, 1=HW, 2=HW-Sim Hybrid)
-dvfs_enabled                           0 # Turn on DVFS for power model
-aggregate_power_stats                    0 # Accumulate power across all kernels
-accelwattch_hybrid_perfsim_L1_RH                    0 # Get L1 Read Hits for Accelwattch-Hybrid from Accel-Sim
-accelwattch_hybrid_perfsim_L1_RM                    0 # Get L1 Read Misses for Accelwattch-Hybrid from Accel-Sim
-accelwattch_hybrid_perfsim_L1_WH                    0 # Get L1 Write Hits for Accelwattch-Hybrid from Accel-Sim
-accelwattch_hybrid_perfsim_L1_WM                    0 # Get L1 Write Misses for Accelwattch-Hybrid from Accel-Sim
-accelwattch_hybrid_perfsim_L2_RH                    0 # Get L2 Read Hits for Accelwattch-Hybrid from Accel-Sim
-accelwattch_hybrid_perfsim_L2_RM                    0 # Get L2 Read Misses for Accelwattch-Hybrid from Accel-Sim
-accelwattch_hybrid_perfsim_L2_WH                    0 # Get L2 Write Hits for Accelwattch-Hybrid from Accel-Sim
-accelwattch_hybrid_perfsim_L2_WM                    0 # Get L2 Write Misses for Accelwattch-Hybrid from Accel-Sim
-accelwattch_hybrid_perfsim_CC_ACC                    0 # Get Constant Cache Acesses for Accelwattch-Hybrid from Accel-Sim
-accelwattch_hybrid_perfsim_SHARED_ACC                    0 # Get Shared Memory Acesses for Accelwattch-Hybrid from Accel-Sim
-accelwattch_hybrid_perfsim_DRAM_RD                    0 # Get DRAM Reads for Accelwattch-Hybrid from Accel-Sim
-accelwattch_hybrid_perfsim_DRAM_WR                    0 # Get DRAM Writes for Accelwattch-Hybrid from Accel-Sim
-accelwattch_hybrid_perfsim_NOC                    0 # Get Interconnect Acesses for Accelwattch-Hybrid from Accel-Sim
-accelwattch_hybrid_perfsim_PIPE_DUTY                    0 # Get Pipeline Duty Cycle Acesses for Accelwattch-Hybrid from Accel-Sim
-accelwattch_hybrid_perfsim_NUM_SM_IDLE                    0 # Get Number of Idle SMs for Accelwattch-Hybrid from Accel-Sim
-accelwattch_hybrid_perfsim_CYCLES                    0 # Get Executed Cycles for Accelwattch-Hybrid from Accel-Sim
-accelwattch_hybrid_perfsim_VOLTAGE                    0 # Get Chip Voltage for Accelwattch-Hybrid from Accel-Sim
-power_trace_enabled                    0 # produce a file for the power trace (1=On, 0=Off)
-power_trace_zlevel                     6 # Compression level of the power trace output log (0=no comp, 9=highest)
-steady_power_levels_enabled                    0 # produce a file for the steady power levels (1=On, 0=Off)
-steady_state_definition                  8:4 # allowed deviation:number of samples
-gpgpu_max_cycle                        0 # terminates gpu simulation early (0 = no limit)
-gpgpu_max_insn                         0 # terminates gpu simulation early (0 = no limit)
-gpgpu_max_cta                          0 # terminates gpu simulation early (0 = no limit)
-gpgpu_max_completed_cta                    0 # terminates gpu simulation early (0 = no limit)
-gpgpu_runtime_stat                   500 # display runtime statistics such as dram utilization {<freq>:<flag>}
-liveness_message_freq                    1 # Minimum number of seconds between simulation liveness messages (0 = always print)
-gpgpu_compute_capability_major                    7 # Major compute capability version number
-gpgpu_compute_capability_minor                    0 # Minor compute capability version number
-gpgpu_flush_l1_cache                    1 # Flush L1 cache at the end of each kernel call
-gpgpu_flush_l2_cache                    0 # Flush L2 cache at the end of each kernel call
-gpgpu_deadlock_detect                    1 # Stop the simulation at deadlock (1=on (default), 0=off)
-gpgpu_ptx_instruction_classification                    0 # if enabled will classify ptx instruction types per kernel (Max 255 kernels now)
-gpgpu_ptx_sim_mode                     0 # Select between Performance (default) or Functional simulation (1)
-gpgpu_clock_domains 1200.0:1200.0:1200.0:850.0 # Clock Domain Frequencies in MhZ {<Core Clock>:<ICNT Clock>:<L2 Clock>:<DRAM Clock>}
-gpgpu_max_concurrent_kernel                  128 # maximum kernels that can run concurrently on GPU, set this value according to max resident grids for your compute capability
-gpgpu_cflog_interval                    0 # Interval between each snapshot in control flow logger
-visualizer_enabled                     0 # Turn on visualizer output (1=On, 0=Off)
-visualizer_outputfile                 NULL # Specifies the output log file for visualizer
-visualizer_zlevel                      6 # Compression level of the visualizer output log (0=no comp, 9=highest)
-gpgpu_stack_size_limit                 1024 # GPU thread stack size
-gpgpu_heap_size_limit              8388608 # GPU malloc heap size 
-gpgpu_runtime_sync_depth_limit                    2 # GPU device runtime synchronize depth
-gpgpu_runtime_pending_launch_count_limit                 2048 # GPU device runtime pending launch count
-trace_enabled                          0 # Turn on traces
-trace_components                    none # comma seperated list of traces to enable. Complete list found in trace_streams.tup. Default none
-trace_sampling_core                    0 # The core which is printed using CORE_DPRINTF. Default 0
-trace_sampling_memory_partition                   -1 # The memory partition which is printed using MEMPART_DPRINTF. Default -1 (i.e. all)
-enable_ptx_file_line_stats                    1 # Turn on PTX source line statistic profiling. (1 = On)
-ptx_line_stats_filename gpgpu_inst_stats.txt # Output file for PTX source line statistics.
-gpgpu_kernel_launch_latency                    0 # Kernel launch latency in cycles. Default: 0
-gpgpu_cdp_enabled                      0 # Turn on CDP
-gpgpu_TB_launch_latency                    0 # thread block launch latency in cycles. Default: 0
DRAM Timing Options:
nbk                                    16 # number of banks
CCD                                     1 # column to column delay
RRD                              4b7ccf8dccb2e9cbc28fc3fe2b1220cd  /workspace/gpgpu-sim_simulations/benchmarks/src/cuda/bin/release/ATAX
Extracting PTX file and ptxas options    1: ATAX.1.sm_30.ptx -arch=sm_30
       3 # minimal delay between activation of rows in different banks
RCD                                    12 # row to column delay
RAS                                    28 # time needed to activate row
RP                                     12 # time needed to precharge (deactivate) row
RC                                     40 # row cycle time
CDLR                                    3 # switching from write to read (changes tWTR)
WR                                     10 # last data-in to row precharge
CL                                     12 # CAS latency
WL                                      2 # Write latency
nbkgrp                                  4 # number of bank groups
CCDL                                    2 # column to column delay between accesses to different bank groups
RTPL                                    3 # read to precharge delay between accesses to different bank groups
Total number of memory sub partition = 48
addr_dec_mask[CHIP]  = 0000000000000000 	high:64 low:0
addr_dec_mask[BK]    = 0000000000007100 	high:15 low:8
addr_dec_mask[ROW]   = 000000000fff8000 	high:28 low:15
addr_dec_mask[COL]   = 0000000000000eff 	high:12 low:0
addr_dec_mask[BURST] = 000000000000001f 	high:5 low:0
sub_partition_id_mask = 0000000000000100
GPGPU-Sim uArch: clock freqs: 1200000000.000000:1200000000.000000:1200000000.000000:850000000.000000
GPGPU-Sim uArch: clock periods: 0.00000000083333333333:0.00000000083333333333:0.00000000083333333333:0.00000000117647058824
*** Initializing Memory Statistics ***
GPGPU-Sim uArch: performance model initialization complete.
GPGPU-Sim PTX: __cudaRegisterFatBinary, fat_cubin_handle = 1, filename=default
self exe links to: /workspace/gpgpu-sim_simulations/benchmarks/src/cuda/bin/release/ATAX
Running md5sum using "md5sum /workspace/gpgpu-sim_simulations/benchmarks/src/cuda/bin/release/ATAX "
self exe links to: /workspace/gpgpu-sim_simulations/benchmarks/src/cuda/bin/release/ATAX
Extracting specific PTX file named ATAX.1.sm_30.ptx 
GPGPU-Sim PTX: __cudaRegisterFunction _Z12atax_kernel2PfS_S_ : hostFun 0x0x5e042a201b1e, fat_cubin_handle = 1
GPGPU-Sim PTX: Parsing ATAX.1.sm_30.ptx
GPGPU-Sim PTX: instruction assembly for function '_Z12atax_kernel1PfS_S_'...   done.
GPGPU-Sim PTX: instruction assembly for function '_Z12atax_kernel2PfS_S_'...   done.
GPGPU-Sim PTX: finished parsing EMBEDDED .ptx file ATAX.1.sm_30.ptx
GPGPU-Sim PTX: loading globals with explicit initializers... 
GPGPU-Sim PTX: finished loading globals (0 bytes total).
GPGPU-Sim PTX: loading constants with explicit initializers...  done.
GPGPU-Sim PTX: Loading PTXInfo from ATAX.1.sm_30.ptx
GPGPU-Sim PTX: Kernel '_Z12atax_kernel2PfS_S_' : regs=18, lmem=0, smem=0, cmem=344
GPGPU-Sim PTX: Kernel '_Z12atax_kernel1PfS_S_' : regs=20, lmem=0, smem=0, cmem=344
GPGPU-Sim PTX: __cudaRegisterFunction _Z12atax_kernel1PfS_S_ : hostFun 0x0x5e042a201999, fat_cubin_handle = 1
setting device 0 with name GPGPU-Sim_vGPGPU-Sim Simulator Version 4.2.0 
GPGPU-Sim PTX: Setting up arguments for 8 bytes starting at 0x7fff66b98c48..
GPGPU-Sim PTX: Setting up arguments for 8 bytes starting at 0x7fff66b98c40..
GPGPU-Sim PTX: Setting up arguments for 8 bytes starting at 0x7fff66b98c38..

GPGPU-Sim PTX: cudaLaunch for 0x0x5e042a201999 (mode=performance simulation) on stream 0
GPGPU-Sim PTX: finding reconvergence points for '_Z12atax_kernel1PfS_S_'...
GPGPU-Sim PTX: Finding dominators for '_Z12atax_kernel1PfS_S_'...
GPGPU-Sim PTX: Finding immediate dominators for '_Z12atax_kernel1PfS_S_'...
GPGPU-Sim PTX: Finding postdominators for '_Z12atax_kernel1PfS_S_'...
GPGPU-Sim PTX: Finding immediate postdominators for '_Z12atax_kernel1PfS_S_'...
GPGPU-Sim PTX: pre-decoding instructions for '_Z12atax_kernel1PfS_S_'...
GPGPU-Sim PTX: reconvergence points for _Z12atax_kernel1PfS_S_...
GPGPU-Sim PTX:  1 (potential) branch divergence @  PC=0x040 (ATAX.1.sm_30.ptx:35) @%p1 bra BB0_3;
GPGPU-Sim PTX:    immediate post dominator      @  PC=0x1d0 (ATAX.1.sm_30.ptx:90) ret;
GPGPU-Sim PTX:  2 (potential) branch divergence @  PC=0x1c8 (ATAX.1.sm_30.ptx:87) @%p2 bra BB0_2;
GPGPU-Sim PTX:    immediate post dominator      @  PC=0x1d0 (ATAX.1.sm_30.ptx:90) ret;
GPGPU-Sim PTX: ... end of reconvergence points for _Z12atax_kernel1PfS_S_
GPGPU-Sim PTX: ... done pre-decoding instructions for '_Z12atax_kernel1PfS_S_'.
GPGPU-Sim PTX: pushing kernel '_Z12atax_kernel1PfS_S_' to stream 0, gridDim= (16,1,1) blockDim = (256,1,1) 
GPGPU-Sim uArch: Shader 0 bind to kernel 1 '_Z12atax_kernel1PfS_S_'
GPGPU-Sim uArch: CTA/core = 8, limited by: threads
GPGPU-Sim: Reconfigure L1 cache to 128KB
GPGPU-Sim uArch: Shader 2 bind to kernel 1 '_Z12atax_kernel1PfS_S_'
GPGPU-Sim uArch: Shader 4 bind to kernel 1 '_Z12atax_kernel1PfS_S_'
GPGPU-Sim uArch: Shader 6 bind to kernel 1 '_Z12atax_kernel1PfS_S_'
GPGPU-Sim uArch: Shader 8 bind to kernel 1 '_Z12atax_kernel1PfS_S_'
GPGPU-Sim uArch: Shader 10 bind to kernel 1 '_Z12atax_kernel1PfS_S_'
GPGPU-Sim uArch: Shader 12 bind to kernel 1 '_Z12atax_kernel1PfS_S_'
GPGPU-Sim uArch: Shader 14 bind to kernel 1 '_Z12atax_kernel1PfS_S_'
GPGPU-Sim uArch: Shader 16 bind to kernel 1 '_Z12atax_kernel1PfS_S_'
GPGPU-Sim uArch: Shader 18 bind to kernel 1 '_Z12atax_kernel1PfS_S_'
GPGPU-Sim uArch: Shader 20 bind to kernel 1 '_Z12atax_kernel1PfS_S_'
GPGPU-Sim uArch: Shader 22 bind to kernel 1 '_Z12atax_kernel1PfS_S_'
GPGPU-Sim uArch: Shader 24 bind to kernel 1 '_Z12atax_kernel1PfS_S_'
GPGPU-Sim uArch: Shader 26 bind to kernel 1 '_Z12atax_kernel1PfS_S_'
GPGPU-Sim uArch: Shader 28 bind to kernel 1 '_Z12atax_kernel1PfS_S_'
GPGPU-Sim uArch: Shader 30 bind to kernel 1 '_Z12atax_kernel1PfS_S_'
Destroy streams for kernel 1: size 0
GPGPU-Sim: synchronize waiting for inactive GPU simulation
GPGPU-Sim API: Stream Manager State
kernel_name = _Z12atax_kernel1PfS_S_ 
kernel_launch_uid = 1 
kernel_stream_id = 0
gpu_sim_cycle = 1120234
gpu_sim_insn = 79769600
gpu_ipc =      71.2080
gpu_tot_sim_cycle = 1120234
gpu_tot_sim_insn = 79769600
gpu_tot_ipc =      71.2080
gpu_tot_issued_cta = 16
gpu_occupancy = 12.4559% 
gpu_tot_occupancy = 12.4559% 
max_total_param_size = 0
gpu_stall_dramfull = 0
gpu_stall_icnt2sh    = 0
partiton_level_parallism =       4.0724
partiton_level_parallism_total  =       4.0724
partiton_level_parallism_util =       4.1231
partiton_level_parallism_util_total  =       4.1231
L2_BW  =     156.3786 GB/Sec
L2_BW_total  =     156.3786 GB/Sec
gpu_total_sim_rate=43613

========= Core cache stats =========
L1I_cache:
	L1I_total_cache_accesses = 0
	L1I_total_cache_misses = 0
	L1I_total_cache_pending_hits = 0
	L1I_total_cache_reservation_fails = 0
L1D_cache:
	L1D_cache_core[0]: Access = 1212448, Miss = 157882, Miss_rate = 0.130, Pending_hits = 80, Reservation_fails = 320
	L1D_cache_core[1]: Access = 1212448, Miss = 142600, Miss_rate = 0.118, Pending_hits = 25, Reservation_fails = 273
	L1D_cache_core[2]: Access = 1212448, Miss = 146731, Miss_rate = 0.121, Pending_hits = 61, Reservation_fails = 234
	L1D_cache_core[3]: Access = 1212448, Miss = 169708, Miss_rate = 0.140, Pending_hits = 90, Reservation_fails = 267
	L1D_cache_core[4]: Access = 1212448, Miss = 170025, Miss_rate = 0.140, Pending_hits = 57, Reservation_fails = 334
	L1D_cache_core[5]: Access = 1212448, Miss = 155071, Miss_rate = 0.128, Pending_hits = 39, Reservation_fails = 324
	L1D_cache_core[6]: Access = 1212448, Miss = 156036, Miss_rate = 0.129, Pending_hits = 45, Reservation_fails = 276
	L1D_cache_core[7]: Access = 1212448, Miss = 165365, Miss_rate = 0.136, Pending_hits = 24, Reservation_fails = 358
	L1D_cache_core[8]: Access = 1212448, Miss = 163215, Miss_rate = 0.135, Pending_hits = 26, Reservation_fails = 228
	L1D_cache_core[9]: Access = 1212448, Miss = 156255, Miss_rate = 0.129, Pending_hits = 39, Reservation_fails = 268
	L1D_cache_core[10]: Access = 1212448, Miss = 139354, Miss_rate = 0.115, Pending_hits = 38, Reservation_fails = 259
	L1D_cache_core[11]: Access = 1212448, Miss = 145893, Miss_rate = 0.120, Pending_hits = 16, Reservation_fails = 310
	L1D_cache_core[12]: Access = 1212448, Miss = 150154, Miss_rate = 0.124, Pending_hits = 21, Reservation_fails = 217
	L1D_cache_core[13]: Access = 1212448, Miss = 145350, Miss_rate = 0.120, Pending_hits = 35, Reservation_fails = 309
	L1D_cache_core[14]: Access = 1212448, Miss = 159333, Miss_rate = 0.131, Pending_hits = 20, Reservation_fails = 328
	L1D_cache_core[15]: Access = 1212448, Miss = 141998, Miss_rate = 0.117, Pending_hits = 43, Reservation_fails = 282
	L1D_cache_core[16]: Access = 0, Miss = 0, Miss_rate = -nan, Pending_hits = 0, Reservation_fails = 0
	L1D_cache_core[17]: Access = 0, Miss = 0, Miss_rate = -nan, Pending_hits = 0, Reservation_fails = 0
	L1D_cache_core[18]: Access = 0, Miss = 0, Miss_rate = -nan, Pending_hits = 0, Reservation_fails = 0
	L1D_cache_core[19]: Access = 0, Miss = 0, Miss_rate = -nan, Pending_hits = 0, Reservation_fails = 0
	L1D_cache_core[20]: Access = 0, Miss = 0, Miss_rate = -nan, Pending_hits = 0, Reservation_fails = 0
	L1D_cache_core[21]: Access = 0, Miss = 0, Miss_rate = -nan, Pending_hits = 0, Reservation_fails = 0
	L1D_cache_core[22]: Access = 0, Miss = 0, Miss_rate = -nan, Pending_hits = 0, Reservation_fails = 0
	L1D_cache_core[23]: Access = 0, Miss = 0, Miss_rate = -nan, Pending_hits = 0, Reservation_fails = 0
	L1D_cache_core[24]: Access = 0, Miss = 0, Miss_rate = -nan, Pending_hits = 0, Reservation_fails = 0
	L1D_cache_core[25]: Access = 0, Miss = 0, Miss_rate = -nan, Pending_hits = 0, Reservation_fails = 0
	L1D_cache_core[26]: Access = 0, Miss = 0, Miss_rate = -nan, Pending_hits = 0, Reservation_fails = 0
	L1D_cache_core[27]: Access = 0, Miss = 0, Miss_rate = -nan, Pending_hits = 0, Reservation_fails = 0
	L1D_cache_core[28]: Access = 0, Miss = 0, Miss_rate = -nan, Pending_hits = 0, Reservation_fails = 0
	L1D_cache_core[29]: Access = 0, Miss = 0, Miss_rate = -nan, Pending_hits = 0, Reservation_fails = 0
	L1D_cache_core[30]: Access = 0, Miss = 0, Miss_rate = -nan, Pending_hits = 0, Reservation_fails = 0
	L1D_cache_core[31]: Access = 0, Miss = 0, Miss_rate = -nan, Pending_hits = 0, Reservation_fails = 0
	L1D_cache_core[32]: Access = 0, Miss = 0, Miss_rate = -nan, Pending_hits = 0, Reservation_fails = 0
	L1D_cache_core[33]: Access = 0, Miss = 0, Miss_rate = -nan, Pending_hits = 0, Reservation_fails = 0
	L1D_cache_core[34]: Access = 0, Miss = 0, Miss_rate = -nan, Pending_hits = 0, Reservation_fails = 0
	L1D_cache_core[35]: Access = 0, Miss = 0, Miss_rate = -nan, Pending_hits = 0, Reservation_fails = 0
	L1D_cache_core[36]: Access = 0, Miss = 0, Miss_rate = -nan, Pending_hits = 0, Reservation_fails = 0
	L1D_cache_core[37]: Access = 0, Miss = 0, Miss_rate = -nan, Pending_hits = 0, Reservation_fails = 0
	L1D_cache_core[38]: Access = 0, Miss = 0, Miss_rate = -nan, Pending_hits = 0, Reservation_fails = 0
	L1D_cache_core[39]: Access = 0, Miss = 0, Miss_rate = -nan, Pending_hits = 0, Reservation_fails = 0
	L1D_total_cache_accesses = 19399168
	L1D_total_cache_misses = 2464970
	L1D_total_cache_miss_rate = 0.1271
	L1D_total_cache_pending_hits = 659
	L1D_total_cache_reservation_fails = 4587
	L1D_cache_data_port_util = 0.946
	L1D_cache_fill_port_util = 0.138
L1C_cache:
	L1C_total_cache_accesses = 0
	L1C_total_cache_misses = 0
	L1C_total_cache_pending_hits = 0
	L1C_total_cache_reservation_fails = 0
L1T_cache:
	L1T_total_cache_accesses = 0
	L1T_total_cache_misses = 0
	L1T_total_cache_pending_hits = 0
	L1T_total_cache_reservation_fails = 0

Total_core_cache_stats:
	Total_core_cache_stats_breakdown[GLOBAL_ACC_R][HIT] = 14836515
	Total_core_cache_stats_breakdown[GLOBAL_ACC_R][HIT_RESERVED] = 659
	Total_core_cache_stats_breakdown[GLOBAL_ACC_R][MISS] = 905980
	Total_core_cache_stats_breakdown[GLOBAL_ACC_R][RESERVATION_FAIL] = 662
	Total_core_cache_stats_breakdown[GLOBAL_ACC_R][SECTOR_MISS] = 1558862
	Total_core_cache_stats_breakdown[GLOBAL_ACC_R][MSHR_HIT] = 659
	Total_core_cache_stats_breakdown[LOCAL_ACC_R][HIT] = 0
	Total_core_cache_stats_breakdown[LOCAL_ACC_R][HIT_RESERVED] = 0
	Total_core_cache_stats_breakdown[LOCAL_ACC_R][MISS] = 0
	Total_core_cache_stats_breakdown[LOCAL_ACC_R][RESERVATION_FAIL] = 0
	Total_core_cache_stats_breakdown[LOCAL_ACC_R][SECTOR_MISS] = 0
	Total_core_cache_stats_breakdown[LOCAL_ACC_R][MSHR_HIT] = 0
	Total_core_cache_stats_breakdown[CONST_ACC_R][HIT] = 0
	Total_core_cache_stats_breakdown[CONST_ACC_R][HIT_RESERVED] = 0
	Total_core_cache_stats_breakdown[CONST_ACC_R][MISS] = 0
	Total_core_cache_stats_breakdown[CONST_ACC_R][RESERVATION_FAIL] = 0
	Total_core_cache_stats_breakdown[CONST_ACC_R][SECTOR_MISS] = 0
	Total_core_cache_stats_breakdown[CONST_ACC_R][MSHR_HIT] = 0
	Total_core_cache_stats_breakdown[TEXTURE_ACC_R][HIT] = 0
	Total_core_cache_stats_breakdown[TEXTURE_ACC_R][HIT_RESERVED] = 0
	Total_core_cache_stats_breakdown[TEXTURE_ACC_R][MISS] = 0
	Total_core_cache_stats_breakdown[TEXTURE_ACC_R][RESERVATION_FAIL] = 0
	Total_core_cache_stats_breakdown[TEXTURE_ACC_R][SECTOR_MISS] = 0
	Total_core_cache_stats_breakdown[TEXTURE_ACC_R][MSHR_HIT] = 0
	Total_core_cache_stats_breakdown[GLOBAL_ACC_W][HIT] = 2097024
	Total_core_cache_stats_breakdown[GLOBAL_ACC_W][HIT_RESERVED] = 0
	Total_core_cache_stats_breakdown[GLOBAL_ACC_W][MISS] = 32
	Total_core_cache_stats_breakdown[GLOBAL_ACC_W][RESERVATION_FAIL] = 3925
	Total_core_cache_stats_breakdown[GLOBAL_ACC_W][SECTOR_MISS] = 96
	Total_core_cache_stats_breakdown[GLOBAL_ACC_W][MSHR_HIT] = 0
	Total_core_cache_stats_breakdown[LOCAL_ACC_W][HIT] = 0
	Total_core_cache_stats_breakdown[LOCAL_ACC_W][HIT_RESERVED] = 0
	Total_core_cache_stats_breakdown[LOCAL_ACC_W][MISS] = 0
	Total_core_cache_stats_breakdown[LOCAL_ACC_W][RESERVATION_FAIL] = 0
	Total_core_cache_stats_breakdown[LOCAL_ACC_W][SECTOR_MISS] = 0
	Total_core_cache_stats_breakdown[LOCAL_ACC_W][MSHR_HIT] = 0
	Total_core_cache_stats_breakdown[L1_WRBK_ACC][HIT] = 0
	Total_core_cache_stats_breakdown[L1_WRBK_ACC][HIT_RESERVED] = 0
	Total_core_cache_stats_breakdown[L1_WRBK_ACC][MISS] = 0
	Total_core_cache_stats_breakdown[L1_WRBK_ACC][RESERVATION_FAIL] = 0
	Total_core_cache_stats_breakdown[L1_WRBK_ACC][SECTOR_MISS] = 0
	Total_core_cache_stats_breakdown[L1_WRBK_ACC][MSHR_HIT] = 0
	Total_core_cache_stats_breakdown[L2_WRBK_ACC][HIT] = 0
	Total_core_cache_stats_breakdown[L2_WRBK_ACC][HIT_RESERVED] = 0
	Total_core_cache_stats_breakdown[L2_WRBK_ACC][MISS] = 0
	Total_core_cache_stats_breakdown[L2_WRBK_ACC][RESERVATION_FAIL] = 0
	Total_core_cache_stats_breakdown[L2_WRBK_ACC][SECTOR_MISS] = 0
	Total_core_cache_stats_breakdown[L2_WRBK_ACC][MSHR_HIT] = 0
	Total_core_cache_stats_breakdown[INST_ACC_R][HIT] = 0
	Total_core_cache_stats_breakdown[INST_ACC_R][HIT_RESERVED] = 0
	Total_core_cache_stats_breakdown[INST_ACC_R][MISS] = 0
	Total_core_cache_stats_breakdown[INST_ACC_R][RESERVATION_FAIL] = 0
	Total_core_cache_stats_breakdown[INST_ACC_R][SECTOR_MISS] = 0
	Total_core_cache_stats_breakdown[INST_ACC_R][MSHR_HIT] = 0
	Total_core_cache_stats_breakdown[L1_WR_ALLOC_R][HIT] = 0
	Total_core_cache_stats_breakdown[L1_WR_ALLOC_R][HIT_RESERVED] = 0
	Total_core_cache_stats_breakdown[L1_WR_ALLOC_R][MISS] = 0
	Total_core_cache_stats_breakdown[L1_WR_ALLOC_R][RESERVATION_FAIL] = 0
	Total_core_cache_stats_breakdown[L1_WR_ALLOC_R][SECTOR_MISS] = 0
	Total_core_cache_stats_breakdown[L1_WR_ALLOC_R][MSHR_HIT] = 0
	Total_core_cache_stats_breakdown[L2_WR_ALLOC_R][HIT] = 0
	Total_core_cache_stats_breakdown[L2_WR_ALLOC_R][HIT_RESERVED] = 0
	Total_core_cache_stats_breakdown[L2_WR_ALLOC_R][MISS] = 0
	Total_core_cache_stats_breakdown[L2_WR_ALLOC_R][RESERVATION_FAIL] = 0
	Total_core_cache_stats_breakdown[L2_WR_ALLOC_R][SECTOR_MISS] = 0
	Total_core_cache_stats_breakdown[L2_WR_ALLOC_R][MSHR_HIT] = 0
	Total_core_cache_stats_breakdown[GLOBAL_ACC_R][TOTAL_ACCESS] = 17302016
	Total_core_cache_stats_breakdown[GLOBAL_ACC_W][TOTAL_ACCESS] = 2097152

Total_core_cache_fail_stats:
	Total_core_cache_fail_stats_breakdown[GLOBAL_ACC_R][LINE_ALLOC_FAIL] = 125
	Total_core_cache_fail_stats_breakdown[GLOBAL_ACC_R][MISS_QUEUE_FULL] = 537
	Total_core_cache_fail_stats_breakdown[GLOBAL_ACC_W][MISS_QUEUE_FULL] = 3925
ctas_completed 16, Shader 0 warp_id issue ditsribution:
warp_id:
0, 1, 2, 3, 4, 5, 6, 7, 
distro:
19477, 19477, 19477, 19477, 19477, 19477, 19477, 19477, 
gpgpu_n_tot_thrd_icount = 79777792
gpgpu_n_tot_w_icount = 2493056
gpgpu_n_stall_shd_mem = 16253949
gpgpu_n_mem_read_local = 0
gpgpu_n_mem_write_local = 0
gpgpu_n_mem_read_global = 2464842
gpgpu_n_mem_write_global = 2097152
gpgpu_n_mem_texture = 0
gpgpu_n_mem_const = 0
gpgpu_n_load_insn  = 33558528
gpgpu_n_store_insn = 16777216
gpgpu_n_shmem_insn = 0
gpgpu_n_sstarr_insn = 0
gpgpu_n_tex_insn = 0
gpgpu_n_const_mem_insn = 0
gpgpu_n_param_mem_insn = 12288
gpgpu_n_shmem_bkconflict = 0
gpgpu_n_l1cache_bkconflict = 16253949
gpgpu_n_intrawarp_mshr_merge = 0
gpgpu_n_cmem_portconflict = 0
gpgpu_stall_shd_mem[c_mem][resource_stall] = 0
gpgpu_stall_shd_mem[s_mem][bk_conf] = 0
gpgpu_stall_shd_mem[gl_mem][resource_stall] = 16253949
gpgpu_stall_shd_mem[gl_mem][coal_stall] = 0
gpgpu_stall_shd_mem[gl_mem][data_port_stall] = 0
gpu_reg_bank_conflict_stalls = 0
Warp Occupancy Distribution:
Stall:17708510	W0_Idle:164049	W0_Scoreboard:51210305	W1:0	W2:0	W3:0	W4:0	W5:0	W6:0	W7:0	W8:0	W9:0	W10:0	W11:0	W12:0	W13:0	W14:0	W15:0	W16:0	W17:0	W18:0	W19:0	W20:0	W21:0	W22:0	W23:0	W24:0	W25:0	W26:0	W27:0	W28:0	W29:0	W30:0	W31:0	W32:2493056
single_issue_nums: WS0:623264	WS1:623264	WS2:623264	WS3:623264	
dual_issue_nums: WS0:0	WS1:0	WS2:0	WS3:0	
traffic_breakdown_coretomem[GLOBAL_ACC_R] = 19718736 {8:2464842,}
traffic_breakdown_coretomem[GLOBAL_ACC_W] = 83886080 {40:2097152,}
traffic_breakdown_memtocore[GLOBAL_ACC_R] = 98593680 {40:2464842,}
traffic_breakdown_memtocore[GLOBAL_ACC_W] = 16777216 {8:2097152,}
maxmflatency = 1400 
max_icnt2mem_latency = 61 
maxmrqlatency = 738 
max_icnt2sh_latency = 233 
averagemflatency = 273 
avg_icnt2mem_latency = 26 
avg_mrq_latency = 8 
avg_icnt2sh_latency = 6 
mrq_lat_table:1041351 	607750 	36216 	66878 	142944 	128818 	58194 	8579 	807 	119 	0 	0 	0 	0 	0 	0 	0 	0 	0 	0 	0 	0 	0 	0 	0 	0 	0 	0 	0 	0 	0 	0 	
dq_lat_table:0 	0 	0 	0 	0 	0 	0 	0 	0 	0 	0 	0 	0 	0 	0 	0 	0 	0 	0 	0 	0 	0 	0 	0 	0 	0 	0 	0 	0 	0 	0 	0 	
mf_lat_table:0 	0 	0 	0 	0 	0 	0 	2442499 	2111258 	7823 	414 	0 	0 	0 	0 	0 	0 	0 	0 	0 	0 	0 	0 	0 	0 	0 	0 	0 	0 	0 	0 	0 	
icnt2mem_lat_table:0 	0 	0 	0 	4230934 	331060 	0 	0 	0 	0 	0 	0 	0 	0 	0 	0 	0 	0 	0 	0 	0 	0 	0 	0 	
icnt2sh_lat_table:0 	2970611 	843239 	381405 	221447 	103012 	39252 	3028 	0 	0 	0 	0 	0 	0 	0 	0 	0 	0 	0 	0 	0 	0 	0 	0 	
mf_lat_pw_table:0 	0 	0 	0 	0 	0 	0 	139 	2101 	0 	0 	0 	0 	0 	0 	0 	0 	0 	0 	0 	0 	0 	0 	0 	0 	0 	0 	0 	0 	0 	0 	0 	
maximum concurrent accesses to same row:
dram[0]:         1         1         2         2         2         2         2         2         2         2         2         2         2         2         2         2 
dram[1]:         2         2         2         2         2         2         2         2         2         1         2         2         1         2         1         2 
dram[2]:         1         2         2         1         2         1         2         2         2         2         2         2         2         2         2         2 
dram[3]:         2         2         2         2         2         1         2         2         2         2         2         1         2         2         2         2 
dram[4]:         1         2         2         1         2         1         2         2         2         2         2         2         1         2         2         2 
dram[5]:         2         2         2         2         1         2         2         2         2         1         2         2         2         2         1         2 
dram[6]:         1         2         2         1         2         1         2         2         2         2         1         2         1         2         2         2 
dram[7]:         2         2         2         2         2         2         2         2         1         2         2         1         2         1         1         2 
dram[8]:         2         1         1         1         1         1         1         1         2         2         2         1         1         2         2         2 
dram[9]:         2         2         1         2         1         1         1         2         1         1         1         2         1         1         1         1 
dram[10]:         1         2         2         2         1         2         1         1         1         2         1         2         1         1         1         1 
dram[11]:         1         1         1         1         2         2         1         2         2         1         1         2         1         1         1         1 
dram[12]:         2         2         1         1         1         2         1         1         1         1         1         1         1         2         1         1 
dram[13]:         2         2         1         1         1         2         1         1         1         1         1         1         2         1         1         1 
dram[14]:         2         1         1         2         1         2         1         1         1         1         1         1         1         1         1         2 
dram[15]:         2         1         1         2         2         2         1         2         2         1         2         2         2         2         2         1 
dram[16]:         1         1         1         1         1         1         2         1         1         1         1         1         1         2         1         1 
dram[17]:         1         2         2         1         1         1         1         1         2         2         1         1         2         2         1         1 
dram[18]:         1         1         2         1         1         1         1         1         1         2         1         2         1         1         1         1 
dram[19]:         1         1         1         1         1         1         1         2         1         2         2         1         2         1         2         1 
dram[20]:         2         1         2         1         2         1         1         2         1         1         1         1         1         1         1         1 
dram[21]:         1         1         2         1         1         1         2         2         1         2         1         1         1         1         1         1 
dram[22]:         2         2         2         1         1         1         1         1         1         1         1         1         1         2         2         2 
dram[23]:         1         2         1         1         1         1         2         2         2         1         2         1         1         2         2         1 
maximum service time to same row:
dram[0]:      1038       890      1039      1030       948       980      1003      1022       936       960       987      1018      1087       962      1083      1026 
dram[1]:      1010      1096      1203       889      1109       920      1176       946      1117      1141      1071       969       958      1362       980       974 
dram[2]:      1045       959      1247       934       935       892      1105       845      1108      1042       932      1041      1327      1399      1022       984 
dram[3]:       956      1091      1099      1048       942      1118       943      1221      1078      1142       904      1035      1159      1039      1066      1034 
dram[4]:      1005       927      1100       915       946      1116      1032      1015      1014       961      1277       938      1073      1067       917       984 
dram[5]:       964      1008       952      1018       950       974      1106       895       979       976       891       977      1169      1097       977       955 
dram[6]:      1061       926      1058       963       956      1007      1016       995      1170      1097      1036      1059      1208       975       950       870 
dram[7]:       912       923      1012      1072      1166       984       930      1130      1216       977      1025       960      1018      1170       928      1141 
dram[8]:      1568      1735      1484      1707      1413      1610      2004      1698      1842      1483      1831      1583      1874      2208      1512      1642 
dram[9]:      1791      1955      1699      1783      1679      1477      1989      1977      1723      1584      2225      1802      2027      1742      1795      1566 
dram[10]:      1603      1786      1996      2181      1827      1922      1616      1766      1860      2405      1666      1960      1728      1634      1594      1609 
dram[11]:      1670      1740      1862      1729      1725      1722      1976      1770      3701      1900      1647      3492      2062      1832      1368      1767 
dram[12]:      1750      1995      1963      1655      1848      1846      1615      1931      1720      1776      1874      2061      1937      1689      1638      1577 
dram[13]:      2213      1733      1964      2157      1848      1755      1851      1800      1891      2170      1794      1750      1759      1649      1737      1698 
dram[14]:      1798      1778      1809      1978      1676      1672      1997      1749      2203      1583      1703      2065      2061      1571      1456      1982 
dram[15]:      1987      1697      2016      1693      1754      1547      1825      1992      2510      1637      1392      1620      1717      1606      1857      1560 
dram[16]:      1471      1715      1609      1870      1788      1535      1669      1606      1592      1531      1855      1560      1638      1630      1751      1625 
dram[17]:      1700      1795      1566      1773      1949      1582      1627      1893      2187      1908      1678      1730      1961      1656      1708      1990 
dram[18]:      1544      1733      1704      1804      1577      1770      1826      1769      1724      2357      1863      2418      1618      1706      1726      1659 
dram[19]:      1661      1697      1622      1743      1888      1813      1721      1723      1471      3477      4214      1667      1749      1665      2344      1812 
dram[20]:      1964      1804      1766      1791      1636      1489      1847      1802      1886      1828      1719      1787      2019      1980      1721      1482 
dram[21]:      1951      2156      1954      1738      1755      1770      1479      1824      1626      2098      1708      1666      1749      1745      1770      1479 
dram[22]:      2010      1985      1832      1828      1587      1769      1870      1559      1740      1799      1608      1683      1750      1852      1717      1641 
dram[23]:      1616      1693      1788      1641      1567      1695      1665      1818      1746      1530      2576      1611      1857      1703      1590      1655 
average row accesses per activate:
dram[0]:  1.000000  1.000000  1.000245  1.000245  1.001093  1.000243  1.000364  1.000121  1.000737  1.000491  1.000737  1.001228  1.000245  1.000245  1.000245  1.000245 
dram[1]:  1.000244  1.000122  1.000737  1.000368  1.000243  1.000243  1.000243  1.000364  1.000368  1.000000  1.000245  1.000123  1.000000  1.000368  1.000000  1.000614 
dram[2]:  1.000000  1.000487  1.000368  1.000000  1.000485  1.000243  1.000728  1.000364  1.000368  1.000246  1.000245  1.000123  1.000491  1.000123  1.000368  1.000736 
dram[3]:  1.000731  1.000365  1.000491  1.000245  1.000121  1.000000  1.000243  1.000121  1.000368  1.000246  1.000737  1.000000  1.000860  1.000123  1.000368  1.000245 
dram[4]:  1.000000  1.000243  1.000123  1.000000  1.000971  1.000000  1.000121  1.000243  1.000368  1.000123  1.000123  1.000368  1.000000  1.000245  1.000368  1.000614 
dram[5]:  1.000608  1.000365  1.000736  1.000368  1.000243  1.000243  1.001214  1.000485  1.000368  1.000000  1.000123  1.000368  1.000245  1.000245  1.000000  1.001720 
dram[6]:  1.000122  1.000365  1.000368  1.000000  1.000728  1.000000  1.000364  1.000364  1.000491  1.000123  1.000123  1.000123  1.000123  1.000368  1.000245  1.000737 
dram[7]:  1.000731  1.000365  1.000245  1.000245  1.000364  1.000243  1.000485  1.000364  1.000123  1.000613  1.000246  1.000368  1.000368  1.000000  1.000000  1.000737 
dram[8]:  1.000736  1.000000  1.000000  1.000000  1.000242  1.000242  1.000000  1.000000  1.000247  1.000247  1.000735  1.000490  1.000491  1.000739  1.000742  1.000247 
dram[9]:  1.000490  1.000491  1.000491  1.000489  1.000725  1.000242  1.000245  1.000736  1.000000  1.000000  1.000000  1.000490  1.000000  1.000000  1.001238  1.000246 
dram[10]:  1.000491  1.000246  1.000245  1.000245  1.000000  1.000485  1.000000  1.000246  1.000494  1.000495  1.000000  1.000490  1.000245  1.000246  1.000000  1.000493 
dram[11]:  1.000000  1.000492  1.000000  1.000000  1.000726  1.000727  1.000000  1.000490  1.000494  1.000247  1.000246  1.000979  1.000000  1.000000  1.000248  1.000000 
dram[12]:  1.000245  1.000490  1.000000  1.000000  1.000000  1.000967  1.000000  1.000000  1.001238  1.000740  1.000000  1.000000  1.000000  1.000245  1.000000  1.000000 
dram[13]:  1.000245  1.000245  1.000245  1.000000  1.000000  1.000483  1.000245  1.000490  1.000247  1.000247  1.000000  1.000492  1.000735  1.000490  1.000247  1.000000 
dram[14]:  1.000490  1.000245  1.000245  1.000491  1.000000  1.000483  1.000737  1.001477  1.000248  1.000247  1.000000  1.000000  1.000000  1.000000  1.000000  1.000742 
dram[15]:  1.000245  1.000000  1.000737  1.000492  1.000241  1.000242  1.000245  1.000738  1.000494  1.000247  1.000245  1.000491  1.000246  1.000736  1.000742  1.000990 
dram[16]:  1.000000  1.000000  1.000494  1.000247  1.000000  1.000000  1.000483  1.000242  1.000000  1.000490  1.000247  1.000000  1.000247  1.000494  1.000491  1.000246 
dram[17]:  1.000486  1.000484  1.000494  1.000000  1.000245  1.000245  1.000724  1.000242  1.000245  1.000245  1.000000  1.000000  1.000247  1.000493  1.000000  1.000000 
dram[18]:  1.000484  1.000000  1.000247  1.000247  1.000000  1.000000  1.000242  1.000242  1.000000  1.000490  1.000494  1.000990  1.000000  1.000247  1.000245  1.000246 
dram[19]:  1.000000  1.000000  1.000248  1.000000  1.000736  1.000000  1.000000  1.000242  1.000246  1.000978  1.000494  1.000247  1.000248  1.000000  1.000245  1.000000 
dram[20]:  1.000968  1.000000  1.000247  1.000247  1.000490  1.000245  1.000000  1.000724  1.000000  1.000000  1.001239  1.000740  1.000000  1.000000  1.000000  1.000000 
dram[21]:  1.000484  1.000000  1.000494  1.000000  1.000000  1.000245  1.000485  1.000725  1.000491  1.000738  1.000247  1.000247  1.000247  1.000000  1.000490  1.000490 
dram[22]:  1.000485  1.000484  1.000494  1.000247  1.000737  1.001477  1.000000  1.000000  1.000000  1.000000  1.000248  1.000000  1.000000  1.000742  1.000246  1.000978 
dram[23]:  1.000729  1.000729  1.000000  1.000000  1.000245  1.000246  1.000241  1.000242  1.000245  1.000000  1.000494  1.000247  1.000000  1.000990  1.000245  1.000490 
average row locality = 2091656/2090987 = 1.000320
number of total memory accesses made:
dram[0]:         0         0         0         0         0         0         0         0         0         0         0         0         0         0         0         0 
dram[1]:         0         0         0         0         0         0         0         0         0         0         0         0         0         0         0         0 
dram[2]:         0         0         0         0         0         0         0         0         0         0         0         0         0         0         0         0 
dram[3]:         0         0         0         0         0         0         0         0         0         0         0         0         0         0         0         0 
dram[4]:         0         0         0         0         0         0         0         0         0         0         0         0         0         0         0         0 
dram[5]:         0         0         0         0         0         0         0         0         0         0         0         0         0         0         0         0 
dram[6]:         0         0         0         0         0         0         0         0         0         0         0         0         0         0         0         0 
dram[7]:         0         0         0         0         0         0         0         0         0         0         0         0         0         0         0         0 
dram[8]:         0         0         0         0         0         0         0         0         0         0         0         0         0         0         0         0 
dram[9]:         0         0         0         0         0         0         0         0         0         0         0         0         0         0         0         0 
dram[10]:         0         0         0         0         0         0         0         0         0         0         0         0         0         0         0         0 
dram[11]:         0         0         0         0         0         0         0         0         0         0         0         0         0         0         0         0 
dram[12]:         0         0         0         0         0         0         0         0         0         0         0         0         0         0         0         0 
dram[13]:         0         0         0         0         0         0         0         0         0         0         0         0         0         0         0         0 
dram[14]:         0         0         0         0         0         0         0         0         0         0         0         0         0         0         0         0 
dram[15]:         0         0         0         0         0         0         0         0         0         0         0         0         0         0         0         0 
dram[16]:         0         0         0         0         0         0         0         0         0         0         0         0         0         0         0         0 
dram[17]:         0         0         0         0         0         0         0         0         0         0         0         0         0         0         0         0 
dram[18]:         0         0         0         0         0         0         0         0         0         0         0         0         0         0         0         0 
dram[19]:         0         0         0         0         0         0         0         0         0         0         0         0         0         0         0         0 
dram[20]:         0         0         0         0         0         0         0         0         0         0         0         0         0         0         0         0 
dram[21]:         0         0         0         0         0         0         0         0         0         0         0         0         0         0         0         0 
dram[22]:         0         0         0         0         0         0         0         0         0         0         0         0         0         0         0         0 
dram[23]:         0         0         0         0         0         0         0         0         0         0         0         0         0         0         0         0 
total accesses: 0
min_bank_accesses = 0!
min_chip_accesses = 0!
number of total read accesses:
dram[0]:      8244      8248      8244      8248      8232      8216      8148      8160      8144      8160      8144      8160      8152      8152      8152      8152 
dram[1]:      8240      8256      8240      8256      8224      8216      8148      8152      8148      8160      8148      8160      8148      8148      8148      8152 
dram[2]:      8244      8248      8244      8248      8224      8216      8152      8152      8148      8160      8152      8160      8152      8152      8152      8152 
dram[3]:      8236      8248      8236      8248      8220      8216      8148      8152      8140      8156      8144      8156      8148      8152      8148      8152 
dram[4]:      8240      8252      8240      8252      8216      8224      8152      8156      8144      8152      8148      8152      8148      8160      8148      8160 
dram[5]:      8248      8256      8248      8256      8224      8224      8152      8160      8152      8152      8152      8152      8144      8160      8144      8160 
dram[6]:      8240      8248      8240      8248      8220      8224      8148      8160      8148      8152      8148      8152      8144      8156      8144      8156 
dram[7]:      8240      8248      8240      8248      8224      8224      8148      8160      8148      8144      8144      8152      8152      8160      8152      8160 
dram[8]:      4064      4084      4136      4144      4136      4152      4016      4032      4008      4024      4104      4104      4096      4104      4008      4024 
dram[9]:      4072      4088      4136      4152      4132      4136      4012      4032      4000      4024      4104      4104      4104      4108      4012      4024 
dram[10]:      4076      4080      4128      4144      4120      4136      4008      4024      3996      4024      4112      4112      4104      4112      4012      4032 
dram[11]:      4072      4080      4132      4136      4128      4144      4012      4028      4008      4024      4112      4116      4104      4100      4008      4032 
dram[12]:      4064      4088      4132      4140      4132      4152      4016      4024      4012      4024      4100      4108      4108      4104      4000      4024 
dram[13]:      4072      4088      4136      4148      4136      4144      4008      4024      4008      4024      4096      4104      4108      4108      4004      4024 
dram[14]:      4072      4084      4132      4140      4132      4136      4008      4024      4008      4032      4104      4100      4112      4112      4016      4024 
dram[15]:      4068      4080      4124      4136      4128      4144      4012      4024      4012      4028      4104      4116      4112      4112      4000      4024 
dram[16]:      4136      4144      4068      4084      4064      4080      4104      4120      4108      4108      4008      4024      4008      4024      4096      4104 
dram[17]:      4128      4152      4072      4088      4060      4080      4104      4108      4112      4104      4000      4024      4012      4024      4104      4108 
dram[18]:      4128      4144      4076      4080      4060      4072      4096      4104      4112      4112      4000      4024      4016      4032      4104      4116 
dram[19]:      4132      4136      4072      4080      4064      4076      4108      4108      4112      4116      4016      4024      4008      4032      4100      4100 
dram[20]:      4132      4140      4068      4088      4064      4080      4112      4120      4100      4108      4008      4024      4000      4024      4108      4104 
dram[21]:      4136      4152      4072      4088      4056      4076      4112      4112      4096      4104      4008      4024      4008      4024      4108      4108 
dram[22]:      4132      4144      4072      4084      4064      4072      4108      4104      4104      4100      4008      4032      4016      4024      4112      4116 
dram[23]:      4124      4136      4068      4080      4068      4072      4104      4108      4104      4112      4016      4032      4000      4024      4112      4112 
total dram reads = 2091656
bank skew: 8256/3996 = 2.07
chip skew: 130984/65220 = 2.01
number of total write accesses:
dram[0]:         0         0         0         0         0         0         0         0         0         0         0         0         0         0         0         0 
dram[1]:         0         0         0         0         0         0         0         0         0         0         0         0         0         0         0         0 
dram[2]:         0         0         0         0         0         0         0         0         0         0         0         0         0         0         0         0 
dram[3]:         0         0         0         0         0         0         0         0         0         0         0         0         0         0         0         0 
dram[4]:         0         0         0         0         0         0         0         0         0         0         0         0         0         0         0         0 
dram[5]:         0         0         0         0         0         0         0         0         0         0         0         0         0         0         0         0 
dram[6]:         0         0         0         0         0         0         0         0         0         0         0         0         0         0         0         0 
dram[7]:         0         0         0         0         0         0         0         0         0         0         0         0         0         0         0         0 
dram[8]:         0         0         0         0         0         0         0         0         0         0         0         0         0         0         0         0 
dram[9]:         0         0         0         0         0         0         0         0         0         0         0         0         0         0         0         0 
dram[10]:         0         0         0         0         0         0         0         0         0         0         0         0         0         0         0         0 
dram[11]:         0         0         0         0         0         0         0         0         0         0         0         0         0         0         0         0 
dram[12]:         0         0         0         0         0         0         0         0         0         0         0         0         0         0         0         0 
dram[13]:         0         0         0         0         0         0         0         0         0         0         0         0         0         0         0         0 
dram[14]:         0         0         0         0         0         0         0         0         0         0         0         0         0         0         0         0 
dram[15]:         0         0         0         0         0         0         0         0         0         0         0         0         0         0         0         0 
dram[16]:         0         0         0         0         0         0         0         0         0         0         0         0         0         0         0         0 
dram[17]:         0         0         0         0         0         0         0         0         0         0         0         0         0         0         0         0 
dram[18]:         0         0         0         0         0         0         0         0         0         0         0         0         0         0         0         0 
dram[19]:         0         0         0         0         0         0         0         0         0         0         0         0         0         0         0         0 
dram[20]:         0         0         0         0         0         0         0         0         0         0         0         0         0         0         0         0 
dram[21]:         0         0         0         0         0         0         0         0         0         0         0         0         0         0         0         0 
dram[22]:         0         0         0         0         0         0         0         0         0         0         0         0         0         0         0         0 
dram[23]:         0         0         0         0         0         0         0         0         0         0         0         0         0         0         0         0 
total dram writes = 0
min_bank_accesses = 0!
min_chip_accesses = 0!
average mf latency per bank:
dram[0]:        417       404       415       402       425       410      1993      1191       417       404       416       402       417       404       415       403
dram[1]:        417       402       414       401       426       411      1993      1190       418       403       415       401       417       404       416       402
dram[2]:        416       404       414       402       425       411      1988      1191       415       403       414       402       417       405       415       403
dram[3]:        419       404       417       402       425       409      1991      1190       417       403       414       404       418       404       417       402
dram[4]:        419       407       416       404       426       408      1993      1190       416       404       415       402       417       403       415       401
dram[5]:        417       405       415       403       425       410      1993      1190       416       405       414       403       419       405       416       403
dram[6]:        416       404       413       402       428       410      1995      1191       419       405       417       403       419       406       417       404
dram[7]:        418       406       415       404       427       410      1997      1192       418       404       415       404       416       405       414       403
dram[8]:        397       387       397       387       396       384      3556      1957       395       384       397       386       397       384       396       384
dram[9]:        394       384       398       385       397       387      3560      1955       395       384       395       384       396       386       397       384
dram[10]:        394       384       395       386       398       386      3561      1961       399       385       397       385       397       386       396       386
dram[11]:        396       385       395       386       396       386      3558      1958       395       383       397       385       395       386       395       384
dram[12]:        396       382       397       386       398       386      3556      1962       397       384       396       387       395       385       397       385
dram[13]:        396       384       396       383       398       387      3564      1962       396       383       398       385       397       385       396       384
dram[14]:        397       384       395       385       396       387      3561      1961       395       382       394       386       396       385       395       384
dram[15]:        397       383       398       386       396       386      3558      1961       395       383       398       386       396       385       399       384
dram[16]:        396       386       396       387       402       394      1939      1918       395       386       395       382       395       383       397       384
dram[17]:        398       385       394       384       402       394      1938      1925       393       386       396       383       396       383       396       386
dram[18]:        394       385       394       383       403       395      1943      1924       396       384       399       383       395       385       396       386
dram[19]:        395       387       396       384       404       395      1936      1925       396       385       395       383       394       383       395       387
dram[20]:        397       385       395       382       400       394      1935      1918       395       386       397       383       396       383       394       385
dram[21]:        396       383       396       384       404       397      1936      1923       398       384       396       383       395       383       398       385
dram[22]:        395       385       397       384       401       396      1937      1927       394       386       396       383       395       383       396       385
dram[23]:        398       385       397       383       399       396      1938      1925       396       384       396       384       398       383       396       385
maximum mf latency per bank:
dram[0]:       1183      1126      1171      1183      1126      1110      1231      1019      1082      1181      1130      1113      1174      1134      1116      1138
dram[1]:       1054       893      1184       866      1201      1104      1259       946      1255      1057      1342      1145      1232      1173      1136      1174
dram[2]:       1061      1098       913      1095      1235      1255      1400      1213      1212      1209      1116      1343      1324      1273      1163      1149
dram[3]:       1244      1264      1146      1149      1098      1185      1087      1203      1222       873      1226      1165      1226      1126      1110       969
dram[4]:       1193      1178      1206      1085      1219      1225      1154      1235      1157       990      1122      1184      1185      1154      1130      1173
dram[5]:       1176      1107       833      1118      1255      1312      1368      1299      1250      1183      1238      1306      1276      1208      1241      1199
dram[6]:       1048      1042      1025       808      1238      1245      1197      1312      1296      1063      1382      1073      1217      1147      1229      1041
dram[7]:       1165      1236      1124      1071      1283      1147      1237      1068      1062      1203      1144      1262      1222      1143      1194      1144
dram[8]:        589       632       652       569       587       593       601       689       692       497       682       620       610       617       555       671
dram[9]:        611       562       532       519       646       648       621       598       622       660       619       623       603       661       561       652
dram[10]:        526       523       659       524       609       524       578       687       649       528       639       585       700       486       640       547
dram[11]:        589       547       663       519       665       522       585       577       517       693       582       572       671       593       622       570
dram[12]:        631       623       624       575       674       622       625       546       547       653       569       661       636       578       554       577
dram[13]:        616       501       614       532       664       519       590       514       614       650       711       645       642       498       685       678
dram[14]:        545       701       532       533       702       617       513       576       659       643       624       678       624       666       610       691
dram[15]:        566       666       589       566       707       600       551       667       626       496       659       583       614       628       640       600
dram[16]:        588       620       582       588       603       643       518       567       603       552       607       609       574       604       603       619
dram[17]:        498       560       514       559       625       655       695       598       704       624       594       637       609       602       647       609
dram[18]:        584       565       562       498       600       672       609       485       666       594       659       642       606       553       733       515
dram[19]:        650       537       644       601       567       704       618       508       577       573       531       658       662       583       591       586
dram[20]:        622       554       691       587       586       601       695       635       550       663       571       661       630       549       660       600
dram[21]:        518       567       663       526       591       553       572       525       638       597       672       638       671       647       683       539
dram[22]:        528       563       530       562       545       614       660       607       640       657       602       639       586       676       615       647
dram[23]:        599       612       598       656       526       657       687       624       673       479       666       609       654       563       567       651
Memory Partition 0: 
Cache L2_bank_000:
MSHR contents

Cache L2_bank_001:
MSHR contents

In Dram Latency Queue (total = 0): 
DRAM[0]: 16 bks, busW=16 BL=2 CL=12, tRRD=3 tCCD=1, tRCD=12 tRAS=28 tRP=12 tRC=40
n_cmd=793499 n_nop=450384 n_act=130903 n_pre=130887 n_ref_event=0 n_req=130956 n_rd=130956 n_rd_L2_A=0 n_write=0 n_wr_bk=0 bw_util=0.165
n_activity=784135 dram_eff=0.167
bk0: 8216a 532734i bk1: 8232a 532655i bk2: 8152a 534703i bk3: 8156a 534242i bk4: 8244a 532530i bk5: 8248a 530562i bk6: 8244a 530657i bk7: 8248a 530457i bk8: 8152a 535605i bk9: 8152a 535250i bk10: 8152a 535524i bk11: 8152a 534219i bk12: 8152a 536417i bk13: 8152a 535084i bk14: 8152a 535839i bk15: 8152a 534097i 

------------------------------------------------------------------------

Row_Buffer_Locality = 0.000405
Row_Buffer_Locality_read = 0.000405
Row_Buffer_Locality_write = -nan
Bank_Level_Parallism = 5.648159
Bank_Level_Parallism_Col = 2.410727
Bank_Level_Parallism_Ready = 1.000061
write_to_read_ratio_blp_rw_average = 0.000000
GrpLevelPara = 2.064478 

BW Util details:
bwutil = 0.165036 
total_CMD = 793499 
util_bw = 130956 
Wasted_Col = 534972 
Wasted_Row = 92968 
Idle = 34603 

BW Util Bottlenecks: 
RCDc_limit = 1283252 
RCDWRc_limit = 0 
WTRc_limit = 0 
RTWc_limit = 0 
CCDLc_limit = 57309 
rwq = 0 
CCDLc_limit_alone = 57309 
WTRc_limit_alone = 0 
RTWc_limit_alone = 0 

Commands details: 
total_CMD = 793499 
n_nop = 450384 
Read = 130956 
Write = 0 
L2_Alloc = 0 
L2_WB = 0 
n_act = 130903 
n_pre = 130887 
n_ref = 0 
n_req = 130956 
total_req = 130956 

Dual Bus Interface Util: 
issued_total_row = 261790 
issued_total_col = 130956 
Row_Bus_Util =  0.329919 
CoL_Bus_Util = 0.165036 
Either_Row_CoL_Bus_Util = 0.432408 
Issued_on_Two_Bus_Simul_Util = 0.062547 
issued_two_Eff = 0.144648 
queue_avg = 1.416351 


dram_util_bins: 0 0 0 0 0 0 0 0 0 0
dram_eff_bins: 0 0 0 0 0 0 0 0 0 0
mrqq: max=64 avg=1.41635
Memory Partition 1: 
Cache L2_bank_002:
MSHR contents

Cache L2_bank_003:
MSHR contents

In Dram Latency Queue (total = 0): 
DRAM[1]: 16 bks, busW=16 BL=2 CL=12, tRRD=3 tCCD=1, tRCD=12 tRAS=28 tRP=12 tRC=40
n_cmd=793499 n_nop=450069 n_act=130909 n_pre=130893 n_ref_event=0 n_req=130944 n_rd=130944 n_rd_L2_A=0 n_write=0 n_wr_bk=0 bw_util=0.165
n_activity=785706 dram_eff=0.1667
bk0: 8216a 534553i bk1: 8224a 534370i bk2: 8148a 535657i bk3: 8152a 535327i bk4: 8248a 531087i bk5: 8248a 531382i bk6: 8244a 530499i bk7: 8248a 530903i bk8: 8152a 536265i bk9: 8152a 536625i bk10: 8152a 536219i bk11: 8152a 535046i bk12: 8152a 534438i bk13: 8152a 535917i bk14: 8152a 534875i bk15: 8152a 534889i 

------------------------------------------------------------------------

Row_Buffer_Locality = 0.000267
Row_Buffer_Locality_read = 0.000267
Row_Buffer_Locality_write = -nan
Bank_Level_Parallism = 5.617689
[...]
Bank_Level_Parallism_Col = 1.478013
Bank_Level_Parallism_Ready = 1.008229
write_to_read_ratio_blp_rw_average = 0.000000
GrpLevelPara = 1.358537 

BW Util details:
bwutil = 0.072033 
total_CMD = 1811955 
util_bw = 130520 
Wasted_Col = 512347 
Wasted_Row = 189601 
Idle = 979487 

BW Util Bottlenecks: 
RCDc_limit = 728724 
RCDWRc_limit = 0 
WTRc_limit = 0 
RTWc_limit = 0 
CCDLc_limit = 65261 
rwq = 0 
CCDLc_limit_alone = 65261 
WTRc_limit_alone = 0 
RTWc_limit_alone = 0 

Commands details: 
total_CMD = 1811955 
n_nop = 1555820 
Read = 130520 
Write = 0 
L2_Alloc = 0 
L2_WB = 0 
n_act = 66714 
n_pre = 66698 
n_ref = 0 
n_req = 130524 
total_req = 130520 

Dual Bus Interface Util: 
issued_total_row = 133412 
issued_total_col = 130520 
Row_Bus_Util =  0.073629 
CoL_Bus_Util = 0.072033 
Either_Row_CoL_Bus_Util = 0.141358 
Issued_on_Two_Bus_Simul_Util = 0.004303 
issued_two_Eff = 0.030441 
queue_avg = 0.278035 


dram_util_bins: 0 0 0 0 0 0 0 0 0 0
dram_eff_bins: 0 0 0 0 0 0 0 0 0 0
mrqq: max=49 avg=0.278035
Memory Partition 20: 
Cache L2_bank_040:
MSHR contents

Cache L2_bank_041:
MSHR contents

In Dram Latency Queue (total = 0): 
DRAM[20]: 16 bks, busW=16 BL=2 CL=12, tRRD=3 tCCD=1, tRCD=12 tRAS=28 tRP=12 tRC=40
n_cmd=1811955 n_nop=1555841 n_act=66707 n_pre=66691 n_ref_event=0 n_req=130520 n_rd=130516 n_rd_L2_A=0 n_write=0 n_wr_bk=0 bw_util=0.07203
n_activity=1001507 dram_eff=0.1303
bk0: 8264a 1694314i bk1: 8256a 1694448i bk2: 8092a 1697134i bk3: 8104a 1697084i bk4: 8144a 1695619i bk5: 8140a 1696659i bk6: 8276a 1693844i bk7: 8288a 1693562i bk8: 8160a 1696258i bk9: 8132a 1696215i bk10: 8080a 1697469i bk11: 8100a 1696751i bk12: 8088a 1697051i bk13: 8084a 1697428i bk14: 8148a 1696377i bk15: 8160a 1696310i 

------------------------------------------------------------------------

Row_Buffer_Locality = 0.488898
Row_Buffer_Locality_read = 0.488898
Row_Buffer_Locality_write = -nan
Bank_Level_Parallism = 2.386011
Bank_Level_Parallism_Col = 1.477784
Bank_Level_Parallism_Ready = 1.008543
write_to_read_ratio_blp_rw_average = 0.000000
GrpLevelPara = 1.357571 

BW Util details:
bwutil = 0.072030 
total_CMD = 1811955 
util_bw = 130516 
Wasted_Col = 512481 
Wasted_Row = 189050 
Idle = 979908 

BW Util Bottlenecks: 
RCDc_limit = 728931 
RCDWRc_limit = 0 
WTRc_limit = 0 
RTWc_limit = 0 
CCDLc_limit = 65399 
rwq = 0 
CCDLc_limit_alone = 65399 
WTRc_limit_alone = 0 
RTWc_limit_alone = 0 

Commands details: 
total_CMD = 1811955 
n_nop = 1555841 
Read = 130516 
Write = 0 
L2_Alloc = 0 
L2_WB = 0 
n_act = 66707 
n_pre = 66691 
n_ref = 0 
n_req = 130520 
total_req = 130516 

Dual Bus Interface Util: 
issued_total_row = 133398 
issued_total_col = 130516 
Row_Bus_Util =  0.073621 
CoL_Bus_Util = 0.072030 
Either_Row_CoL_Bus_Util = 0.141347 
Issued_on_Two_Bus_Simul_Util = 0.004305 
issued_two_Eff = 0.030455 
queue_avg = 0.280107 


dram_util_bins: 0 0 0 0 0 0 0 0 0 0
dram_eff_bins: 0 0 0 0 0 0 0 0 0 0
mrqq: max=52 avg=0.280107
Memory Partition 21: 
Cache L2_bank_042:
MSHR contents

Cache L2_bank_043:
MSHR contents

In Dram Latency Queue (total = 0): 
DRAM[21]: 16 bks, busW=16 BL=2 CL=12, tRRD=3 tCCD=1, tRCD=12 tRAS=28 tRP=12 tRC=40
n_cmd=1811955 n_nop=1555916 n_act=66702 n_pre=66686 n_ref_event=0 n_req=130492 n_rd=130488 n_rd_L2_A=0 n_write=0 n_wr_bk=0 bw_util=0.07202
n_activity=1003158 dram_eff=0.1301
bk0: 8260a 1694742i bk1: 8248a 1695212i bk2: 8096a 1696726i bk3: 8096a 1696771i bk4: 8140a 1695316i bk5: 8144a 1696000i bk6: 8264a 1695244i bk7: 8284a 1694390i bk8: 8144a 1696479i bk9: 8128a 1696697i bk10: 8084a 1697975i bk11: 8096a 1697019i bk12: 8096a 1696761i bk13: 8084a 1696761i bk14: 8160a 1695743i bk15: 8164a 1696567i 

------------------------------------------------------------------------

Row_Buffer_Locality = 0.488827
Row_Buffer_Locality_read = 0.488827
Row_Buffer_Locality_write = -nan
Bank_Level_Parallism = 2.378846
Bank_Level_Parallism_Col = 1.476860
Bank_Level_Parallism_Ready = 1.007901
write_to_read_ratio_blp_rw_average = 0.000000
GrpLevelPara = 1.358955 

BW Util details:
bwutil = 0.072015 
total_CMD = 1811955 
util_bw = 130488 
Wasted_Col = 512799 
Wasted_Row = 190464 
Idle = 978204 

BW Util Bottlenecks: 
RCDc_limit = 729063 
RCDWRc_limit = 0 
WTRc_limit = 0 
RTWc_limit = 0 
CCDLc_limit = 65032 
rwq = 0 
CCDLc_limit_alone = 65032 
WTRc_limit_alone = 0 
RTWc_limit_alone = 0 

Commands details: 
total_CMD = 1811955 
n_nop = 1555916 
Read = 130488 
Write = 0 
L2_Alloc = 0 
L2_WB = 0 
n_act = 66702 
n_pre = 66686 
n_ref = 0 
n_req = 130492 
total_req = 130488 

Dual Bus Interface Util: 
issued_total_row = 133388 
issued_total_col = 130488 
Row_Bus_Util =  0.073616 
CoL_Bus_Util = 0.072015 
Either_Row_CoL_Bus_Util = 0.141305 
Issued_on_Two_Bus_Simul_Util = 0.004325 
issued_two_Eff = 0.030609 
queue_avg = 0.280239 


dram_util_bins: 0 0 0 0 0 0 0 0 0 0
dram_eff_bins: 0 0 0 0 0 0 0 0 0 0
mrqq: max=51 avg=0.280239
Memory Partition 22: 
Cache L2_bank_044:
MSHR contents

Cache L2_bank_045:
MSHR contents

In Dram Latency Queue (total = 0): 
DRAM[22]: 16 bks, busW=16 BL=2 CL=12, tRRD=3 tCCD=1, tRCD=12 tRAS=28 tRP=12 tRC=40
n_cmd=1811955 n_nop=1555897 n_act=66712 n_pre=66696 n_ref_event=0 n_req=130540 n_rd=130536 n_rd_L2_A=0 n_write=0 n_wr_bk=0 bw_util=0.07204
n_activity=1000940 dram_eff=0.1304
bk0: 8252a 1694896i bk1: 8244a 1694106i bk2: 8096a 1697510i bk3: 8100a 1696230i bk4: 8152a 1696418i bk5: 8140a 1696450i bk6: 8276a 1694761i bk7: 8284a 1694120i bk8: 8156a 1696086i bk9: 8164a 1696516i bk10: 8080a 1696762i bk11: 8096a 1697451i bk12: 8084a 1697352i bk13: 8080a 1696943i bk14: 8160a 1696301i bk15: 8172a 1696170i 

------------------------------------------------------------------------

Row_Buffer_Locality = 0.488938
Row_Buffer_Locality_read = 0.488938
Row_Buffer_Locality_write = -nan
Bank_Level_Parallism = 2.382049
Bank_Level_Parallism_Col = 1.479573
Bank_Level_Parallism_Ready = 1.008258
write_to_read_ratio_blp_rw_average = 0.000000
GrpLevelPara = 1.360590 

BW Util details:
bwutil = 0.072042 
total_CMD = 1811955 
util_bw = 130536 
Wasted_Col = 511877 
Wasted_Row = 190376 
Idle = 979166 

BW Util Bottlenecks: 
RCDc_limit = 728751 
RCDWRc_limit = 0 
WTRc_limit = 0 
RTWc_limit = 0 
CCDLc_limit = 65277 
rwq = 0 
CCDLc_limit_alone = 65277 
WTRc_limit_alone = 0 
RTWc_limit_alone = 0 

Commands details: 
total_CMD = 1811955 
n_nop = 1555897 
Read = 130536 
Write = 0 
L2_Alloc = 0 
L2_WB = 0 
n_act = 66712 
n_pre = 66696 
n_ref = 0 
n_req = 130540 
total_req = 130536 

Dual Bus Interface Util: 
issued_total_row = 133408 
issued_total_col = 130536 
Row_Bus_Util =  0.073627 
CoL_Bus_Util = 0.072042 
Either_Row_CoL_Bus_Util = 0.141316 
Issued_on_Two_Bus_Simul_Util = 0.004352 
issued_two_Eff = 0.030798 
queue_avg = 0.280675 


dram_util_bins: 0 0 0 0 0 0 0 0 0 0
dram_eff_bins: 0 0 0 0 0 0 0 0 0 0
mrqq: max=50 avg=0.280675
Memory Partition 23: 
Cache L2_bank_046:
MSHR contents

Cache L2_bank_047:
MSHR contents

In Dram Latency Queue (total = 0): 
DRAM[23]: 16 bks, busW=16 BL=2 CL=12, tRRD=3 tCCD=1, tRCD=12 tRAS=28 tRP=12 tRC=40
n_cmd=1811955 n_nop=1555950 n_act=66687 n_pre=66671 n_ref_event=0 n_req=130484 n_rd=130480 n_rd_L2_A=0 n_write=0 n_wr_bk=0 bw_util=0.07201
n_activity=1002751 dram_eff=0.1301
bk0: 8240a 1695430i bk1: 8232a 1694483i bk2: 8096a 1697181i bk3: 8108a 1697308i bk4: 8156a 1696310i bk5: 8140a 1696069i bk6: 8276a 1693978i bk7: 8272a 1693823i bk8: 8160a 1696079i bk9: 8144a 1696629i bk10: 8088a 1697448i bk11: 8092a 1696789i bk12: 8080a 1696922i bk13: 8076a 1696741i bk14: 8156a 1696620i bk15: 8164a 1695899i 

------------------------------------------------------------------------

Row_Buffer_Locality = 0.488910
Row_Buffer_Locality_read = 0.488910
Row_Buffer_Locality_write = -nan
Bank_Level_Parallism = 2.377946
Bank_Level_Parallism_Col = 1.475656
Bank_Level_Parallism_Ready = 1.008446
write_to_read_ratio_blp_rw_average = 0.000000
GrpLevelPara = 1.356984 

BW Util details:
bwutil = 0.072011 
total_CMD = 1811955 
util_bw = 130480 
Wasted_Col = 513329 
Wasted_Row = 190546 
Idle = 977600 

BW Util Bottlenecks: 
RCDc_limit = 728754 
RCDWRc_limit = 0 
WTRc_limit = 0 
RTWc_limit = 0 
CCDLc_limit = 65330 
rwq = 0 
CCDLc_limit_alone = 65330 
WTRc_limit_alone = 0 
RTWc_limit_alone = 0 

Commands details: 
total_CMD = 1811955 
n_nop = 1555950 
Read = 130480 
Write = 0 
L2_Alloc = 0 
L2_WB = 0 
n_act = 66687 
n_pre = 66671 
n_ref = 0 
n_req = 130484 
total_req = 130480 

Dual Bus Interface Util: 
issued_total_row = 133358 
issued_total_col = 130480 
Row_Bus_Util =  0.073599 
CoL_Bus_Util = 0.072011 
Either_Row_CoL_Bus_Util = 0.141287 
Issued_on_Two_Bus_Simul_Util = 0.004323 
issued_two_Eff = 0.030597 
queue_avg = 0.278515 


dram_util_bins: 0 0 0 0 0 0 0 0 0 0
dram_eff_bins: 0 0 0 0 0 0 0 0 0 0
mrqq: max=49 avg=0.278515

========= L2 cache stats =========
L2_cache_bank[0]: Access = 142391, Miss = 131156, Miss_rate = 0.921, Pending_hits = 0, Reservation_fails = 0
L2_cache_bank[1]: Access = 438052, Miss = 130732, Miss_rate = 0.298, Pending_hits = 31, Reservation_fails = 3
L2_cache_bank[2]: Access = 142588, Miss = 131136, Miss_rate = 0.920, Pending_hits = 0, Reservation_fails = 0
L2_cache_bank[3]: Access = 437967, Miss = 130728, Miss_rate = 0.298, Pending_hits = 35, Reservation_fails = 0
L2_cache_bank[4]: Access = 142584, Miss = 131128, Miss_rate = 0.920, Pending_hits = 0, Reservation_fails = 0
L2_cache_bank[5]: Access = 437864, Miss = 130724, Miss_rate = 0.299, Pending_hits = 38, Reservation_fails = 0
L2_cache_bank[6]: Access = 142542, Miss = 131132, Miss_rate = 0.920, Pending_hits = 0, Reservation_fails = 0
L2_cache_bank[7]: Access = 437894, Miss = 130684, Miss_rate = 0.298, Pending_hits = 28, Reservation_fails = 0
L2_cache_bank[8]: Access = 142593, Miss = 131184, Miss_rate = 0.920, Pending_hits = 0, Reservation_fails = 0
L2_cache_bank[9]: Access = 438006, Miss = 130680, Miss_rate = 0.298, Pending_hits = 29, Reservation_fails = 0
L2_cache_bank[10]: Access = 142574, Miss = 131172, Miss_rate = 0.920, Pending_hits = 0, Reservation_fails = 0
L2_cache_bank[11]: Access = 437750, Miss = 130720, Miss_rate = 0.299, Pending_hits = 35, Reservation_fails = 0
L2_cache_bank[12]: Access = 142588, Miss = 131136, Miss_rate = 0.920, Pending_hits = 0, Reservation_fails = 0
L2_cache_bank[13]: Access = 438035, Miss = 130700, Miss_rate = 0.298, Pending_hits = 35, Reservation_fails = 0
L2_cache_bank[14]: Access = 142371, Miss = 131152, Miss_rate = 0.921, Pending_hits = 0, Reservation_fails = 0
L2_cache_bank[15]: Access = 438122, Miss = 130680, Miss_rate = 0.298, Pending_hits = 38, Reservation_fails = 0
L2_cache_bank[16]: Access = 71307, Miss = 65312, Miss_rate = 0.916, Pending_hits = 0, Reservation_fails = 0
L2_cache_bank[17]: Access = 169735, Miss = 65088, Miss_rate = 0.383, Pending_hits = 24, Reservation_fails = 482
L2_cache_bank[18]: Access = 71275, Miss = 65332, Miss_rate = 0.917, Pending_hits = 0, Reservation_fails = 0
L2_cache_bank[19]: Access = 169670, Miss = 65124, Miss_rate = 0.384, Pending_hits = 24, Reservation_fails = 643
L2_cache_bank[20]: Access = 71307, Miss = 65320, Miss_rate = 0.916, Pending_hits = 0, Reservation_fails = 0
L2_cache_bank[21]: Access = 169780, Miss = 65080, Miss_rate = 0.383, Pending_hits = 31, Reservation_fails = 619
L2_cache_bank[22]: Access = 71176, Miss = 65340, Miss_rate = 0.918, Pending_hits = 0, Reservation_fails = 0
L2_cache_bank[23]: Access = 169830, Miss = 65100, Miss_rate = 0.383, Pending_hits = 29, Reservation_fails = 518
L2_cache_bank[24]: Access = 71230, Miss = 65324, Miss_rate = 0.917, Pending_hits = 0, Reservation_fails = 0
L2_cache_bank[25]: Access = 169751, Miss = 65100, Miss_rate = 0.384, Pending_hits = 24, Reservation_fails = 180
L2_cache_bank[26]: Access = 71304, Miss = 65312, Miss_rate = 0.916, Pending_hits = 0, Reservation_fails = 0
L2_cache_bank[27]: Access = 169777, Miss = 65080, Miss_rate = 0.383, Pending_hits = 23, Reservation_fails = 0
L2_cache_bank[28]: Access = 71276, Miss = 65324, Miss_rate = 0.916, Pending_hits = 0, Reservation_fails = 0
L2_cache_bank[29]: Access = 169643, Miss = 65128, Miss_rate = 0.384, Pending_hits = 16, Reservation_fails = 0
L2_cache_bank[30]: Access = 71277, Miss = 65300, Miss_rate = 0.916, Pending_hits = 0, Reservation_fails = 0
L2_cache_bank[31]: Access = 169770, Miss = 65092, Miss_rate = 0.383, Pending_hits = 19, Reservation_fails = 73
L2_cache_bank[32]: Access = 71311, Miss = 65312, Miss_rate = 0.916, Pending_hits = 0, Reservation_fails = 0
L2_cache_bank[33]: Access = 202831, Miss = 65176, Miss_rate = 0.321, Pending_hits = 16, Reservation_fails = 0
L2_cache_bank[34]: Access = 71327, Miss = 65332, Miss_rate = 0.916, Pending_hits = 0, Reservation_fails = 0
L2_cache_bank[35]: Access = 202752, Miss = 65192, Miss_rate = 0.322, Pending_hits = 18, Reservation_fails = 0
L2_cache_bank[36]: Access = 71347, Miss = 65320, Miss_rate = 0.916, Pending_hits = 0, Reservation_fails = 0
L2_cache_bank[37]: Access = 202838, Miss = 65164, Miss_rate = 0.321, Pending_hits = 21, Reservation_fails = 0
L2_cache_bank[38]: Access = 71201, Miss = 65340, Miss_rate = 0.918, Pending_hits = 0, Reservation_fails = 0
L2_cache_bank[39]: Access = 202961, Miss = 65180, Miss_rate = 0.321, Pending_hits = 20, Reservation_fails = 0
L2_cache_bank[40]: Access = 71186, Miss = 65336, Miss_rate = 0.918, Pending_hits = 0, Reservation_fails = 0
L2_cache_bank[41]: Access = 202843, Miss = 65180, Miss_rate = 0.321, Pending_hits = 13, Reservation_fails = 0
L2_cache_bank[42]: Access = 71315, Miss = 65316, Miss_rate = 0.916, Pending_hits = 0, Reservation_fails = 0
L2_cache_bank[43]: Access = 202844, Miss = 65172, Miss_rate = 0.321, Pending_hits = 10, Reservation_fails = 0
L2_cache_bank[44]: Access = 71327, Miss = 65328, Miss_rate = 0.916, Pending_hits = 0, Reservation_fails = 0
L2_cache_bank[45]: Access = 202777, Miss = 65208, Miss_rate = 0.322, Pending_hits = 21, Reservation_fails = 0
L2_cache_bank[46]: Access = 71307, Miss = 65300, Miss_rate = 0.916, Pending_hits = 0, Reservation_fails = 0
L2_cache_bank[47]: Access = 202806, Miss = 65180, Miss_rate = 0.321, Pending_hits = 18, Reservation_fails = 0
L2_total_cache_accesses = 8765002
L2_total_cache_misses = 4182236
L2_total_cache_miss_rate = 0.4772
L2_total_cache_pending_hits = 596
L2_total_cache_reservation_fails = 2518
L2_total_cache_breakdown:
	L2_cache_stats_breakdown[GLOBAL_ACC_R][HIT] = 14826
	L2_cache_stats_breakdown[GLOBAL_ACC_R][HIT_RESERVED] = 450
	L2_cache_stats_breakdown[GLOBAL_ACC_R][MISS] = 522645
	L2_cache_stats_breakdown[GLOBAL_ACC_R][RESERVATION_FAIL] = 2518
	L2_cache_stats_breakdown[GLOBAL_ACC_R][SECTOR_MISS] = 1567935
	L2_cache_stats_breakdown[GLOBAL_ACC_R][MSHR_HIT] = 450
	L2_cache_stats_breakdown[LOCAL_ACC_R][HIT] = 0
	L2_cache_stats_breakdown[LOCAL_ACC_R][HIT_RESERVED] = 0
	L2_cache_stats_breakdown[LOCAL_ACC_R][MISS] = 0
	L2_cache_stats_breakdown[LOCAL_ACC_R][RESERVATION_FAIL] = 0
	L2_cache_stats_breakdown[LOCAL_ACC_R][SECTOR_MISS] = 0
	L2_cache_stats_breakdown[LOCAL_ACC_R][MSHR_HIT] = 0
	L2_cache_stats_breakdown[CONST_ACC_R][HIT] = 0
	L2_cache_stats_breakdown[CONST_ACC_R][HIT_RESERVED] = 0
	L2_cache_stats_breakdown[CONST_ACC_R][MISS] = 0
	L2_cache_stats_breakdown[CONST_ACC_R][RESERVATION_FAIL] = 0
	L2_cache_stats_breakdown[CONST_ACC_R][SECTOR_MISS] = 0
	L2_cache_stats_breakdown[CONST_ACC_R][MSHR_HIT] = 0
	L2_cache_stats_breakdown[TEXTURE_ACC_R][HIT] = 0
	L2_cache_stats_breakdown[TEXTURE_ACC_R][HIT_RESERVED] = 0
	L2_cache_stats_breakdown[TEXTURE_ACC_R][MISS] = 0
	L2_cache_stats_breakdown[TEXTURE_ACC_R][RESERVATION_FAIL] = 0
	L2_cache_stats_breakdown[TEXTURE_ACC_R][SECTOR_MISS] = 0
	L2_cache_stats_breakdown[TEXTURE_ACC_R][MSHR_HIT] = 0
	L2_cache_stats_breakdown[GLOBAL_ACC_W][HIT] = 2097152
	L2_cache_stats_breakdown[GLOBAL_ACC_W][HIT_RESERVED] = 0
	L2_cache_stats_breakdown[GLOBAL_ACC_W][MISS] = 0
	L2_cache_stats_breakdown[GLOBAL_ACC_W][RESERVATION_FAIL] = 0
	L2_cache_stats_breakdown[GLOBAL_ACC_W][SECTOR_MISS] = 0
	L2_cache_stats_breakdown[GLOBAL_ACC_W][MSHR_HIT] = 0
	L2_cache_stats_breakdown[LOCAL_ACC_W][HIT] = 0
	L2_cache_stats_breakdown[LOCAL_ACC_W][HIT_RESERVED] = 0
	L2_cache_stats_breakdown[LOCAL_ACC_W][MISS] = 0
	L2_cache_stats_breakdown[LOCAL_ACC_W][RESERVATION_FAIL] = 0
	L2_cache_stats_breakdown[LOCAL_ACC_W][SECTOR_MISS] = 0
	L2_cache_stats_breakdown[LOCAL_ACC_W][MSHR_HIT] = 0
	L2_cache_stats_breakdown[L1_WRBK_ACC][HIT] = 0
	L2_cache_stats_breakdown[L1_WRBK_ACC][HIT_RESERVED] = 0
	L2_cache_stats_breakdown[L1_WRBK_ACC][MISS] = 0
	L2_cache_stats_breakdown[L1_WRBK_ACC][RESERVATION_FAIL] = 0
	L2_cache_stats_breakdown[L1_WRBK_ACC][SECTOR_MISS] = 0
	L2_cache_stats_breakdown[L1_WRBK_ACC][MSHR_HIT] = 0
	L2_cache_stats_breakdown[L2_WRBK_ACC][HIT] = 0
	L2_cache_stats_breakdown[L2_WRBK_ACC][HIT_RESERVED] = 0
	L2_cache_stats_breakdown[L2_WRBK_ACC][MISS] = 0
	L2_cache_stats_breakdown[L2_WRBK_ACC][RESERVATION_FAIL] = 0
	L2_cache_stats_breakdown[L2_WRBK_ACC][SECTOR_MISS] = 0
	L2_cache_stats_breakdown[L2_WRBK_ACC][MSHR_HIT] = 0
	L2_cache_stats_breakdown[INST_ACC_R][HIT] = 0
	L2_cache_stats_breakdown[INST_ACC_R][HIT_RESERVED] = 0
	L2_cache_stats_breakdown[INST_ACC_R][MISS] = 0
	L2_cache_stats_breakdown[INST_ACC_R][RESERVATION_FAIL] = 0
	L2_cache_stats_breakdown[INST_ACC_R][SECTOR_MISS] = 0
	L2_cache_stats_breakdown[INST_ACC_R][MSHR_HIT] = 0
	L2_cache_stats_breakdown[L1_WR_ALLOC_R][HIT] = 0
	L2_cache_stats_breakdown[L1_WR_ALLOC_R][HIT_RESERVED] = 0
	L2_cache_stats_breakdown[L1_WR_ALLOC_R][MISS] = 0
	L2_cache_stats_breakdown[L1_WR_ALLOC_R][RESERVATION_FAIL] = 0
	L2_cache_stats_breakdown[L1_WR_ALLOC_R][SECTOR_MISS] = 0
	L2_cache_stats_breakdown[L1_WR_ALLOC_R][MSHR_HIT] = 0
	L2_cache_stats_breakdown[L2_WR_ALLOC_R][HIT] = 0
	L2_cache_stats_breakdown[L2_WR_ALLOC_R][HIT_RESERVED] = 0
	L2_cache_stats_breakdown[L2_WR_ALLOC_R][MISS] = 0
	L2_cache_stats_breakdown[L2_WR_ALLOC_R][RESERVATION_FAIL] = 0
	L2_cache_stats_breakdown[L2_WR_ALLOC_R][SECTOR_MISS] = 0
	L2_cache_stats_breakdown[L2_WR_ALLOC_R][MSHR_HIT] = 0
	L2_cache_stats_breakdown[GLOBAL_ACC_R][TOTAL_ACCESS] = 2105856
	L2_cache_stats_breakdown[GLOBAL_ACC_W][TOTAL_ACCESS] = 2097152
L2_total_cache_reservation_fail_breakdown:
	L2_cache_stats_fail_breakdown[GLOBAL_ACC_R][MSHR_MERGE_ENRTY_FAIL] = 2518
L2_cache_data_port_util = 0.037
L2_cache_fill_port_util = 0.034

icnt_total_pkts_mem_to_simt=8765002
icnt_total_pkts_simt_to_mem=8765002
LD_mem_lat_dist  0 0 0 0 0 0 0 0 0 0 0 0 0 0 0 0 0 0 0 0 0 0 0 0 0 0 0
ST_mem_lat_dist  0 0 0 0 0 0 0 0 0 0 0 0 0 0 0 0 0 0 0 0 0 0 0 0 0 0 0
----------------------------Interconnect-DETAILS--------------------------------
Req_Network_injected_packets_num = 8765002
Req_Network_cycles = 2558055
Req_Network_injected_packets_per_cycle =       3.4264 
Req_Network_conflicts_per_cycle =       0.3054
Req_Network_conflicts_per_cycle_util =       0.3113
Req_Bank_Level_Parallism =       3.4932
Req_Network_in_buffer_full_per_cycle =       0.0000
Req_Network_in_buffer_avg_util =       0.0348
Req_Network_out_buffer_full_per_cycle =       0.0000
Req_Network_out_buffer_avg_util =       0.0714

Reply_Network_injected_packets_num = 8765002
Reply_Network_cycles = 2558055
Reply_Network_injected_packets_per_cycle =        3.4264
Reply_Network_conflicts_per_cycle =        2.3600
Reply_Network_conflicts_per_cycle_util =       2.4352
Reply_Bank_Level_Parallism =       3.5355
Reply_Network_in_buffer_full_per_cycle =       0.0000
Reply_Network_in_buffer_avg_util =       0.1580
Reply_Network_out_buffer_full_per_cycle =       0.0000
Reply_Network_out_buffer_avg_util =       0.0857
----------------------------END-of-Interconnect-DETAILS-------------------------


gpgpu_simulation_time = 0 days, 0 hrs, 54 min, 51 sec (3291 sec)
gpgpu_simulation_rate = 49109 (inst/sec)
gpgpu_simulation_rate = 777 (cycle/sec)
gpgpu_silicon_slowdown = 1544401x
GPGPU-Sim: synchronize waiting for inactive GPU simulation
GPGPU-Sim API: Stream Manager State
GPGPU-Sim: detected inactive GPU simulation thread
GPU Runtime: 3288.366134s
CPU Runtime: 0.232932s
Non-Matching CPU-GPU Outputs Beyond Error Threshold of 0.50 Percent: 0
GPGPU-Sim: *** exit detected ***
