self exe links to: /workspace/gpgpu-sim_simulations/benchmarks/src/cuda/bin/release/BP
self exe links to: /workspace/gpgpu-sim_simulations/benchmarks/src/cuda/bin/release/BP
10.1


        *** GPGPU-Sim Simulator Version 4.2.0  [build gpgpu-sim_git-commit-a4ce3fe_modified_0.0] ***


GPGPU-Sim PTX: simulation mode 0 (can change with PTX_SIM_MODE_FUNC environment variable:
               1=functional simulation only, 0=detailed performance simulator)
GPGPU-Sim PTX: overriding embedded ptx with ptx file (PTX_SIM_USE_PTX_FILE is set)
GPGPU-Sim: Configuration options:

-save_embedded_ptx                      0 # saves ptx files embedded in binary as <n>.ptx
-keep                                   0 # keep intermediate files created by GPGPU-Sim when interfacing with external programs
-gpgpu_ptx_save_converted_ptxplus                    0 # Saved converted ptxplus to a file
-gpgpu_occupancy_sm_number                   70 # The SM number to pass to ptxas when getting register usage for computing GPU occupancy. This parameter is required in the config.
-ptx_opcode_latency_int      4,13,4,5,145,32 # Opcode latencies for integers <ADD,MAX,MUL,MAD,DIV,SHFL>Default 1,1,19,25,145,32
-ptx_opcode_latency_fp          4,13,4,5,39 # Opcode latencies for single precision floating points <ADD,MAX,MUL,MAD,DIV>Default 1,1,1,1,30
-ptx_opcode_latency_dp         8,19,8,8,330 # Opcode latencies for double precision floating points <ADD,MAX,MUL,MAD,DIV>Default 8,8,8,8,335
-ptx_opcode_latency_sfu                  100 # Opcode latencies for SFU instructionsDefault 8
-ptx_opcode_latency_tesnor                   64 # Opcode latencies for Tensor instructionsDefault 64
-ptx_opcode_initiation_int          2,2,2,2,8,4 # Opcode initiation intervals for integers <ADD,MAX,MUL,MAD,DIV,SHFL>Default 1,1,4,4,32,4
-ptx_opcode_initiation_fp            2,2,2,2,4 # Opcode initiation intervals for single precision floating points <ADD,MAX,MUL,MAD,DIV>Default 1,1,1,1,5
-ptx_opcode_initiation_dp          4,4,4,4,130 # Opcode initiation intervals for double precision floating points <ADD,MAX,MUL,MAD,DIV>Default 8,8,8,8,130
-ptx_opcode_initiation_sfu                    8 # Opcode initiation intervals for sfu instructionsDefault 8
-ptx_opcode_initiation_tensor                   64 # Opcode initiation intervals for tensor instructionsDefault 64
-cdp_latency         7200,8000,100,12000,1600 # CDP API latency <cudaStreamCreateWithFlags, cudaGetParameterBufferV2_init_perWarp, cudaGetParameterBufferV2_perKernel, cudaLaunchDeviceV2_init_perWarp, cudaLaunchDevicV2_perKernel>Default 7200,8000,100,12000,1600
-network_mode                           2 # Interconnection network mode
-inter_config_file                   mesh # Interconnection network config file
-icnt_in_buffer_limit                  512 # in_buffer_limit
-icnt_out_buffer_limit                  512 # out_buffer_limit
-icnt_subnets                           2 # subnets
-icnt_arbiter_algo                      1 # arbiter_algo
-icnt_verbose                           0 # inct_verbose
-icnt_grant_cycles                      1 # grant_cycles
-gpgpu_ptx_use_cuobjdump                    1 # Use cuobjdump to extract ptx and sass from binaries
-gpgpu_experimental_lib_support                    0 # Try to extract code from cuda libraries [Broken because of unknown cudaGetExportTable]
-checkpoint_option                      0 #  checkpointing flag (0 = no checkpoint)
-checkpoint_kernel                      1 #  checkpointing during execution of which kernel (1- 1st kernel)
-checkpoint_CTA                         0 #  checkpointing after # of CTA (< less than total CTA)
-resume_option                          0 #  resume flag (0 = no resume)
-resume_kernel                          0 #  Resume from which kernel (1= 1st kernel)
-resume_CTA                             0 #  resume from which CTA 
-checkpoint_CTA_t                       0 #  resume from which CTA 
-checkpoint_insn_Y                      0 #  resume from which CTA 
-gpgpu_ptx_convert_to_ptxplus                    0 # Convert SASS (native ISA) to ptxplus and run ptxplus
-gpgpu_ptx_force_max_capability                   70 # Force maximum compute capability
-gpgpu_ptx_inst_debug_to_file                    0 # Dump executed instructions' debug information to file
-gpgpu_ptx_inst_debug_file       inst_debug.txt # Executed instructions' debug output file
-gpgpu_ptx_inst_debug_thread_uid                    1 # Thread UID for executed instructions' debug output
-gpgpu_simd_model                       1 # 1 = post-dominator
-gpgpu_shader_core_pipeline              2048:32 # shader core pipeline config, i.e., {<nthread>:<warpsize>}
-gpgpu_tex_cache:l1  N:4:128:256,L:R:m:N:L,T:512:8,128:2 # per-shader L1 texture cache  (READ-ONLY) config  {<nsets>:<bsize>:<assoc>,<rep>:<wr>:<alloc>:<wr_alloc>,<mshr>:<N>:<merge>,<mq>:<rf>}
-gpgpu_const_cache:l1 N:128:64:8,L:R:f:N:L,S:2:64,4 # per-shader L1 constant memory cache  (READ-ONLY) config  {<nsets>:<bsize>:<assoc>,<rep>:<wr>:<alloc>:<wr_alloc>,<mshr>:<N>:<merge>,<mq>} 
-gpgpu_cache:il1     N:64:128:16,L:R:f:N:L,S:2:48,4 # shader L1 instruction cache config  {<nsets>:<bsize>:<assoc>,<rep>:<wr>:<alloc>:<wr_alloc>,<mshr>:<N>:<merge>,<mq>} 
-gpgpu_cache:dl1     S:4:128:64,L:T:m:L:L,A:512:8,16:0,32 # per-shader L1 data cache config  {<nsets>:<bsize>:<assoc>,<rep>:<wr>:<alloc>:<wr_alloc>,<mshr>:<N>:<merge>,<mq> | none}
-gpgpu_l1_cache_write_ratio                   25 # L1D write ratio
-gpgpu_l1_banks                         4 # The number of L1 cache banks
-gpgpu_l1_banks_byte_interleaving                   32 # l1 banks byte interleaving granularity
-gpgpu_l1_banks_hashing_function                    0 # l1 banks hashing function
-gpgpu_l1_latency                      20 # L1 Hit Latency
-gpgpu_smem_latency                    20 # smem Latency
-gpgpu_cache:dl1PrefL1                 none # per-shader L1 data cache config  {<nsets>:<bsize>:<assoc>,<rep>:<wr>:<alloc>:<wr_alloc>,<mshr>:<N>:<merge>,<mq> | none}
-gpgpu_cache:dl1PrefShared                 none # per-shader L1 data cache config  {<nsets>:<bsize>:<assoc>,<rep>:<wr>:<alloc>:<wr_alloc>,<mshr>:<N>:<merge>,<mq> | none}
-gpgpu_gmem_skip_L1D                    0 # global memory access skip L1D cache (implements -Xptxas -dlcm=cg, default=no skip)
-gpgpu_perfect_mem                      0 # enable perfect memory mode (no cache miss)
-n_regfile_gating_group                    4 # group of lanes that should be read/written together)
-gpgpu_clock_gated_reg_file                    0 # enable clock gated reg file for power calculations
-gpgpu_clock_gated_lanes                    0 # enable clock gated lanes for power calculations
-gpgpu_shader_registers                65536 # Number of registers per shader core. Limits number of concurrent CTAs. (default 8192)
-gpgpu_registers_per_block                65536 # Maximum number of registers per CTA. (default 8192)
-gpgpu_ignore_resources_limitation                    0 # gpgpu_ignore_resources_limitation (default 0)
-gpgpu_shader_cta                      32 # Maximum number of concurrent CTAs in shader (default 32)
-gpgpu_num_cta_barriers                   16 # Maximum number of named barriers per CTA (default 16)
-gpgpu_n_clusters                      40 # number of processing clusters
-gpgpu_n_cores_per_cluster                    2 # number of simd cores per cluster
-gpgpu_n_cluster_ejection_buffer_size                   32 # number of packets in ejection buffer
-gpgpu_n_ldst_response_buffer_size                    2 # number of response packets in ld/st unit ejection buffer
-gpgpu_shmem_per_block                65536 # Size of shared memory per thread block or CTA (default 48kB)
-gpgpu_shmem_size                   98304 # Size of shared memory per shader core (default 16kB)
-gpgpu_shmem_option       0,8,16,32,64,96 # Option list of shared memory sizes
-gpgpu_unified_l1d_size                  128 # Size of unified data cache(L1D + shared memory) in KB
-gpgpu_adaptive_cache_config                    1 # adaptive_cache_config
-gpgpu_shmem_sizeDefault                98304 # Size of shared memory per shader core (default 16kB)
-gpgpu_shmem_size_PrefL1                16384 # Size of shared memory per shader core (default 16kB)
-gpgpu_shmem_size_PrefShared                16384 # Size of shared memory per shader core (default 16kB)
-gpgpu_shmem_num_banks                   32 # Number of banks in the shared memory in each shader core (default 16)
-gpgpu_shmem_limited_broadcast                    0 # Limit shared memory to do one broadcast per cycle (default on)
-gpgpu_shmem_warp_parts                    1 # Number of portions a warp is divided into for shared memory bank conflict check 
-gpgpu_mem_unit_ports                    1 # The number of memory transactions allowed per core cycle
-gpgpu_shmem_warp_parts                    1 # Number of portions a warp is divided into for shared memory bank conflict check 
-gpgpu_warpdistro_shader                   -1 # Specify which shader core to collect the warp size distribution from
-gpgpu_warp_issue_shader                    0 # Specify which shader core to collect the warp issue distribution from
-gpgpu_local_mem_map                    1 # Mapping from local memory space address to simulated GPU physical address space (default = enabled)
-gpgpu_num_reg_banks                    8 # Number of register banks (default = 8)
-gpgpu_reg_bank_use_warp_id                    0 # Use warp ID in mapping registers to banks (default = off)
-gpgpu_sub_core_model                    1 # Sub Core Volta/Pascal model (default = off)
-gpgpu_enable_specialized_operand_collector                    0 # enable_specialized_operand_collector
-gpgpu_operand_collector_num_units_sp                    4 # number of collector units (default = 4)
-gpgpu_operand_collector_num_units_dp                    0 # number of collector units (default = 0)
-gpgpu_operand_collector_num_units_sfu                    4 # number of collector units (default = 4)
-gpgpu_operand_collector_num_units_int                    0 # number of collector units (default = 0)
-gpgpu_operand_collector_num_units_tensor_core                    4 # number of collector units (default = 4)
-gpgpu_operand_collector_num_units_mem                    2 # number of collector units (default = 2)
-gpgpu_operand_collector_num_units_gen                    8 # number of collector units (default = 0)
-gpgpu_operand_collector_num_in_ports_sp                    1 # number of collector unit in ports (default = 1)
-gpgpu_operand_collector_num_in_ports_dp                    0 # number of collector unit in ports (default = 0)
-gpgpu_operand_collector_num_in_ports_sfu                    1 # number of collector unit in ports (default = 1)
-gpgpu_operand_collector_num_in_ports_int                    0 # number of collector unit in ports (default = 0)
-gpgpu_operand_collector_num_in_ports_tensor_core                    1 # number of collector unit in ports (default = 1)
-gpgpu_operand_collector_num_in_ports_mem                    1 # number of collector unit in ports (default = 1)
-gpgpu_operand_collector_num_in_ports_gen                    8 # number of collector unit in ports (default = 0)
-gpgpu_operand_collector_num_out_ports_sp                    1 # number of collector unit in ports (default = 1)
-gpgpu_operand_collector_num_out_ports_dp                    0 # number of collector unit in ports (default = 0)
-gpgpu_operand_collector_num_out_ports_sfu                    1 # number of collector unit in ports (default = 1)
-gpgpu_operand_collector_num_out_ports_int                    0 # number of collector unit in ports (default = 0)
-gpgpu_operand_collector_num_out_ports_tensor_core                    1 # number of collector unit in ports (default = 1)
-gpgpu_operand_collector_num_out_ports_mem                    1 # number of collector unit in ports (default = 1)
-gpgpu_operand_collector_num_out_ports_gen                    8 # number of collector unit in ports (default = 0)
-gpgpu_coalesce_arch                   60 # Coalescing arch (GT200 = 13, Fermi = 20)
-gpgpu_num_sched_per_core                    4 # Number of warp schedulers per core
-gpgpu_max_insn_issue_per_warp                    1 # Max number of instructions that can be issued per warp in one cycle by scheduler (either 1 or 2)
-gpgpu_dual_issue_diff_exec_units                    1 # should dual issue use two different execution unit resources (Default = 1)
-gpgpu_simt_core_sim_order                    1 # Select the simulation order of cores in a cluster (0=Fix, 1=Round-Robin)
-gpgpu_pipeline_widths 4,4,4,4,4,4,4,4,4,4,8,4,4 # Pipeline widths ID_OC_SP,ID_OC_DP,ID_OC_INT,ID_OC_SFU,ID_OC_MEM,OC_EX_SP,OC_EX_DP,OC_EX_INT,OC_EX_SFU,OC_EX_MEM,EX_WB,ID_OC_TENSOR_CORE,OC_EX_TENSOR_CORE
-gpgpu_tensor_core_avail                    1 # Tensor Core Available (default=0)
-gpgpu_num_sp_units                     4 # Number of SP units (default=1)
-gpgpu_num_dp_units                     4 # Number of DP units (default=0)
-gpgpu_num_int_units                    4 # Number of INT units (default=0)
-gpgpu_num_sfu_units                    4 # Number of SF units (default=1)
-gpgpu_num_tensor_core_units                    4 # Number of tensor_core units (default=1)
-gpgpu_num_mem_units                    1 # Number if ldst units (default=1) WARNING: not hooked up to anything
-gpgpu_scheduler                      lrr # Scheduler configuration: < lrr | gto | two_level_active > If two_level_active:<num_active_warps>:<inner_prioritization>:<outer_prioritization>For complete list of prioritization values see shader.h enum scheduler_prioritization_typeDefault: gto
-gpgpu_concurrent_kernel_sm                    0 # Support concurrent kernels on a SM (default = disabled)
-gpgpu_perfect_inst_const_cache                    1 # perfect inst and const cache mode, so all inst and const hits in the cache(default = disabled)
-gpgpu_inst_fetch_throughput                    4 # the number of fetched intruction per warp each cycle
-gpgpu_reg_file_port_throughput                    2 # the number ports of the register file
-specialized_unit_1         0,4,4,4,4,BRA # specialized unit config {<enabled>,<num_units>:<latency>:<initiation>,<ID_OC_SPEC>:<OC_EX_SPEC>,<NAME>}
-specialized_unit_2         0,4,4,4,4,BRA # specialized unit config {<enabled>,<num_units>:<latency>:<initiation>,<ID_OC_SPEC>:<OC_EX_SPEC>,<NAME>}
-specialized_unit_3         0,4,4,4,4,BRA # specialized unit config {<enabled>,<num_units>:<latency>:<initiation>,<ID_OC_SPEC>:<OC_EX_SPEC>,<NAME>}
-specialized_unit_4         0,4,4,4,4,BRA # specialized unit config {<enabled>,<num_units>:<latency>:<initiation>,<ID_OC_SPEC>:<OC_EX_SPEC>,<NAME>}
-specialized_unit_5         0,4,4,4,4,BRA # specialized unit config {<enabled>,<num_units>:<latency>:<initiation>,<ID_OC_SPEC>:<OC_EX_SPEC>,<NAME>}
-specialized_unit_6         0,4,4,4,4,BRA # specialized unit config {<enabled>,<num_units>:<latency>:<initiation>,<ID_OC_SPEC>:<OC_EX_SPEC>,<NAME>}
-specialized_unit_7         0,4,4,4,4,BRA # specialized unit config {<enabled>,<num_units>:<latency>:<initiation>,<ID_OC_SPEC>:<OC_EX_SPEC>,<NAME>}
-specialized_unit_8         0,4,4,4,4,BRA # specialized unit config {<enabled>,<num_units>:<latency>:<initiation>,<ID_OC_SPEC>:<OC_EX_SPEC>,<NAME>}
-gpgpu_perf_sim_memcpy                    1 # Fill the L2 cache on memcpy
-gpgpu_simple_dram_model                    0 # simple_dram_model with fixed latency and BW
-gpgpu_dram_scheduler                    1 # 0 = fifo, 1 = FR-FCFS (defaul)
-gpgpu_dram_partition_queues          64:64:64:64 # i2$:$2d:d2$:$2i
-l2_ideal                               0 # Use a ideal L2 cache that always hit
-gpgpu_cache:dl2     S:32:128:24,L:B:m:L:P,A:192:4,32:0,32 # unified banked L2 data cache config  {<nsets>:<bsize>:<assoc>,<rep>:<wr>:<alloc>:<wr_alloc>,<mshr>:<N>:<merge>,<mq>}
-gpgpu_cache:dl2_texture_only                    0 # L2 cache used for texture only
-gpgpu_n_mem                           24 # number of memory modules (e.g. memory controllers) in gpu
-gpgpu_n_sub_partition_per_mchannel                    2 # number of memory subpartition in each memory module
-gpgpu_n_mem_per_ctrlr                    1 # number of memory chips per memory controller
-gpgpu_memlatency_stat                   14 # track and display latency statistics 0x2 enables MC, 0x4 enables queue logs
-gpgpu_frfcfs_dram_sched_queue_size                   64 # 0 = unlimited (default); # entries per chip
-gpgpu_dram_return_queue_size                  192 # 0 = unlimited (default); # entries per chip
-gpgpu_dram_buswidth                   16 # default = 4 bytes (8 bytes per cycle at DDR)
-gpgpu_dram_burst_length                    2 # Burst length of each DRAM request (default = 4 data bus cycle)
-dram_data_command_freq_ratio                    2 # Frequency ratio between DRAM data bus and command bus (default = 2 times, i.e. DDR)
-gpgpu_dram_timing_opt nbk=16:CCD=1:RRD=3:RCD=12:RAS=28:RP=12:RC=40: CL=12:WL=2:CDLR=3:WR=10:nbkgrp=4:CCDL=2:RTPL=3 # DRAM timing parameters = {nbk:tCCD:tRRD:tRCD:tRAS:tRP:tRC:CL:WL:tCDLR:tWR:nbkgrp:tCCDL:tRTPL}
-gpgpu_l2_rop_latency                  160 # ROP queue latency (default 85)
-dram_latency                         100 # DRAM latency (default 30)
-dram_dual_bus_interface                  257 # dual_bus_interface (default = 0) 
-dram_bnk_indexing_policy                    1 # dram_bnk_indexing_policy (0 = normal indexing, 1 = Xoring with the higher bits) (Default = 0)
-dram_bnkgrp_indexing_policy                    1 # dram_bnkgrp_indexing_policy (0 = take higher bits, 1 = take lower bits) (Default = 0)
-dram_seperate_write_queue_enable                    1 # Seperate_Write_Queue_Enable
-dram_write_queue_size           128:108:32 # Write_Queue_Size
-dram_elimnate_rw_turnaround                    0 # elimnate_rw_turnaround i.e set tWTR and tRTW = 0
-icnt_flit_size                        40 # icnt_flit_size
-SST_mode                               0 # SST mode
-gpgpu_mem_addr_mapping dramid@8;00000000.00000000.00000000.00000000.0000RRRR.RRRRRRRR.RBBBCCCB.CCCSSSSS # mapping memory address to dram model {dramid@<start bit>;<memory address map>}
-gpgpu_mem_addr_test                    0 # run sweep test to check address mapping for aliased address
-gpgpu_mem_address_mask                    1 # 0 = old addressing mask, 1 = new addressing mask, 2 = new add. mask + flipped bank sel and chip sel bits
-gpgpu_memory_partition_indexing                    2 # 0 = no indexing, 1 = bitwise xoring, 2 = IPoly, 3 = custom indexing
-accelwattch_xml_file accelwattch_sass_sim.xml # AccelWattch XML file
-power_simulation_enabled                    0 # Turn on power simulator (1=On, 0=Off)
-power_per_cycle_dump                    0 # Dump detailed power output each cycle
-hw_perf_file_name            hw_perf.csv # Hardware Performance Statistics file
-hw_perf_bench_name                       # Kernel Name in Hardware Performance Statistics file
-power_simulation_mode                    0 # Switch performance counter input for power simulation (0=Sim, 1=HW, 2=HW-Sim Hybrid)
-dvfs_enabled                           0 # Turn on DVFS for power model
-aggregate_power_stats                    0 # Accumulate power across all kernels
-accelwattch_hybrid_perfsim_L1_RH                    0 # Get L1 Read Hits for Accelwattch-Hybrid from Accel-Sim
-accelwattch_hybrid_perfsim_L1_RM                    0 # Get L1 Read Misses for Accelwattch-Hybrid from Accel-Sim
-accelwattch_hybrid_perfsim_L1_WH                    0 # Get L1 Write Hits for Accelwattch-Hybrid from Accel-Sim
-accelwattch_hybrid_perfsim_L1_WM                    0 # Get L1 Write Misses for Accelwattch-Hybrid from Accel-Sim
-accelwattch_hybrid_perfsim_L2_RH                    0 # Get L2 Read Hits for Accelwattch-Hybrid from Accel-Sim
-accelwattch_hybrid_perfsim_L2_RM                    0 # Get L2 Read Misses for Accelwattch-Hybrid from Accel-Sim
-accelwattch_hybrid_perfsim_L2_WH                    0 # Get L2 Write Hits for Accelwattch-Hybrid from Accel-Sim
-accelwattch_hybrid_perfsim_L2_WM                    0 # Get L2 Write Misses for Accelwattch-Hybrid from Accel-Sim
-accelwattch_hybrid_perfsim_CC_ACC                    0 # Get Constant Cache Acesses for Accelwattch-Hybrid from Accel-Sim
-accelwattch_hybrid_perfsim_SHARED_ACC                    0 # Get Shared Memory Acesses for Accelwattch-Hybrid from Accel-Sim
-accelwattch_hybrid_perfsim_DRAM_RD                    0 # Get DRAM Reads for Accelwattch-Hybrid from Accel-Sim
-accelwattch_hybrid_perfsim_DRAM_WR                    0 # Get DRAM Writes for Accelwattch-Hybrid from Accel-Sim
-accelwattch_hybrid_perfsim_NOC                    0 # Get Interconnect Acesses for Accelwattch-Hybrid from Accel-Sim
-accelwattch_hybrid_perfsim_PIPE_DUTY                    0 # Get Pipeline Duty Cycle Acesses for Accelwattch-Hybrid from Accel-Sim
-accelwattch_hybrid_perfsim_NUM_SM_IDLE                    0 # Get Number of Idle SMs for Accelwattch-Hybrid from Accel-Sim
-accelwattch_hybrid_perfsim_CYCLES                    0 # Get Executed Cycles for Accelwattch-Hybrid from Accel-Sim
-accelwattch_hybrid_perfsim_VOLTAGE                    0 # Get Chip Voltage for Accelwattch-Hybrid from Accel-Sim
-power_trace_enabled                    0 # produce a file for the power trace (1=On, 0=Off)
-power_trace_zlevel                     6 # Compression level of the power trace output log (0=no comp, 9=highest)
-steady_power_levels_enabled                    0 # produce a file for the steady power levels (1=On, 0=Off)
-steady_state_definition                  8:4 # allowed deviation:number of samples
-gpgpu_max_cycle                        0 # terminates gpu simulation early (0 = no limit)
-gpgpu_max_insn                         0 # terminates gpu simulation early (0 = no limit)
-gpgpu_max_cta                          0 # terminates gpu simulation early (0 = no limit)
-gpgpu_max_completed_cta                    0 # terminates gpu simulation early (0 = no limit)
-gpgpu_runtime_stat                   500 # display runtime statistics such as dram utilization {<freq>:<flag>}
-liveness_message_freq                    1 # Minimum number of seconds between simulation liveness messages (0 = always print)
-gpgpu_compute_capability_major                    7 # Major compute capability version number
-gpgpu_compute_capability_minor                    0 # Minor compute capability version number
-gpgpu_flush_l1_cache                    1 # Flush L1 cache at the end of each kernel call
-gpgpu_flush_l2_cache                    0 # Flush L2 cache at the end of each kernel call
-gpgpu_deadlock_detect                    1 # Stop the simulation at deadlock (1=on (default), 0=off)
-gpgpu_ptx_instruction_classification                    0 # if enabled will classify ptx instruction types per kernel (Max 255 kernels now)
-gpgpu_ptx_sim_mode                     0 # Select between Performance (default) or Functional simulation (1)
-gpgpu_clock_domains 1200.0:1200.0:1200.0:850.0 # Clock Domain Frequencies in MhZ {<Core Clock>:<ICNT Clock>:<L2 Clock>:<DRAM Clock>}
-gpgpu_max_concurrent_kernel                  128 # maximum kernels that can run concurrently on GPU, set this value according to max resident grids for your compute capability
-gpgpu_cflog_interval                    0 # Interval between each snapshot in control flow logger
-visualizer_enabled                     0 # Turn on visualizer output (1=On, 0=Off)
-visualizer_outputfile                 NULL # Specifies the output log file for visualizer
-visualizer_zlevel                      6 # Compression level of the visualizer output log (0=no comp, 9=highest)
-gpgpu_stack_size_limit                 1024 # GPU thread stack size
-gpgpu_heap_size_limit              8388608 # GPU malloc heap size 
-gpgpu_runtime_sync_depth_limit                    2 # GPU device runtime synchronize depth
-gpgpu_runtime_pending_launch_count_limit                 2048 # GPU device runtime pending launch count
-trace_enabled                          0 # Turn on traces
-trace_components                    none # comma seperated list of traces to enable. Complete list found in trace_streams.tup. Default none
-trace_sampling_core                    0 # The core which is printed using CORE_DPRINTF. Default 0
-trace_sampling_memory_partition                   -1 # The memory partition which is printed using MEMPART_DPRINTF. Default -1 (i.e. all)
-enable_ptx_file_line_stats                    1 # Turn on PTX source line statistic profiling. (1 = On)
-ptx_line_stats_filename gpgpu_inst_stats.txt # Output file for PTX source line statistics.
-gpgpu_kernel_launch_latency                    0 # Kernel launch latency in cycles. Default: 0
-gpgpu_cdp_enabled                      0 # Turn on CDP
-gpgpu_TB_launch_latency                    0 # thread block launch latency in cycles. Default: 0
DRAM Timing Options:
nbk                                    16 # number of banks
CCD                                     1 # column to column delay
RRD                              709dbe6b6cf03a26eb8315011e56431c  /workspace/gpgpu-sim_simulations/benchmarks/src/cuda/bin/release/BP
Extracting PTX file and ptxas options    1: BP.1.sm_30.ptx -arch=sm_30
       3 # minimal delay between activation of rows in different banks
RCD                                    12 # row to column delay
RAS                                    28 # time needed to activate row
RP                                     12 # time needed to precharge (deactivate) row
RC                                     40 # row cycle time
CDLR                                    3 # switching from write to read (changes tWTR)
WR                                     10 # last data-in to row precharge
CL                                     12 # CAS latency
WL                                      2 # Write latency
nbkgrp                                  4 # number of bank groups
CCDL                                    2 # column to column delay between accesses to different bank groups
RTPL                                    3 # read to precharge delay between accesses to different bank groups
Total number of memory sub partition = 48
addr_dec_mask[CHIP]  = 0000000000000000 	high:64 low:0
addr_dec_mask[BK]    = 0000000000007100 	high:15 low:8
addr_dec_mask[ROW]   = 000000000fff8000 	high:28 low:15
addr_dec_mask[COL]   = 0000000000000eff 	high:12 low:0
addr_dec_mask[BURST] = 000000000000001f 	high:5 low:0
sub_partition_id_mask = 0000000000000100
GPGPU-Sim uArch: clock freqs: 1200000000.000000:1200000000.000000:1200000000.000000:850000000.000000
GPGPU-Sim uArch: clock periods: 0.00000000083333333333:0.00000000083333333333:0.00000000083333333333:0.00000000117647058824
*** Initializing Memory Statistics ***
GPGPU-Sim uArch: performance model initialization complete.
GPGPU-Sim PTX: __cudaRegisterFatBinary, fat_cubin_handle = 1, filename=default
self exe links to: /workspace/gpgpu-sim_simulations/benchmarks/src/cuda/bin/release/BP
Running md5sum using "md5sum /workspace/gpgpu-sim_simulations/benchmarks/src/cuda/bin/release/BP "
self exe links to: /workspace/gpgpu-sim_simulations/benchmarks/src/cuda/bin/release/BP
Extracting specific PTX file named BP.1.sm_30.ptx 
GPGPU-Sim PTX: __cudaRegisterFunction _Z24bpnn_adjust_weights_cudaPfiS_iS_S_ : hostFun 0x0x64b9f8801e67, fat_cubin_handle = 1
GPGPU-Sim PTX: Parsing BP.1.sm_30.ptx
GPGPU-Sim PTX: allocating shared region for "_ZZ22bpnn_layerforward_CUDAPfS_S_S_iiE10input_node" from 0x0 to 0x40 (shared memory space)
GPGPU-Sim PTX: allocating shared region for "_ZZ22bpnn_layerforward_CUDAPfS_S_S_iiE13weight_matrix" from 0x80 to 0x480 (shared memory space)
GPGPU-Sim PTX: instruction assembly for function '_Z22bpnn_layerforward_CUDAPfS_S_S_ii'...   done.
GPGPU-Sim PTX: instruction assembly for function '_Z24bpnn_adjust_weights_cudaPfiS_iS_S_'...   done.
GPGPU-Sim PTX: finished parsing EMBEDDED .ptx file BP.1.sm_30.ptx
GPGPU-Sim PTX: loading globals with explicit initializers... 
GPGPU-Sim PTX: finished loading globals (0 bytes total).
GPGPU-Sim PTX: loading constants with explicit initializers...  done.
GPGPU-Sim PTX: Loading PTXInfo from BP.1.sm_30.ptx
GPGPU-Sim PTX: Kernel '_Z24bpnn_adjust_weights_cudaPfiS_iS_S_' : regs=21, lmem=0, smem=0, cmem=376
GPGPU-Sim PTX: Kernel '_Z22bpnn_layerforward_CUDAPfS_S_S_ii' : regs=17, lmem=0, smem=1088, cmem=360
GPGPU-Sim PTX: __cudaRegisterFunction _Z22bpnn_layerforward_CUDAPfS_S_S_ii : hostFun 0x0x64b9f8801c73, fat_cubin_handle = 1
Random number generator seed: 7
Input layer size : 65536
Starting training kernel
Performing GPU computation
GPGPU-Sim PTX: Setting up arguments for 8 bytes starting at 0x7ffec9944f48..
GPGPU-Sim PTX: Setting up arguments for 8 bytes starting at 0x7ffec9944f40..
GPGPU-Sim PTX: Setting up arguments for 8 bytes starting at 0x7ffec9944f38..
GPGPU-Sim PTX: Setting up arguments for 8 bytes starting at 0x7ffec9944f30..
GPGPU-Sim PTX: Setting up arguments for 4 bytes starting at 0x7ffec9944f2c..
GPGPU-Sim PTX: Setting up arguments for 4 bytes starting at 0x7ffec9944f28..

GPGPU-Sim PTX: cudaLaunch for 0x0x64b9f8801c73 (mode=performance simulation) on stream 0
GPGPU-Sim PTX: finding reconvergence points for '_Z22bpnn_layerforward_CUDAPfS_S_S_ii'...
GPGPU-Sim PTX: Finding dominators for '_Z22bpnn_layerforward_CUDAPfS_S_S_ii'...
GPGPU-Sim PTX: Finding immediate dominators for '_Z22bpnn_layerforward_CUDAPfS_S_S_ii'...
GPGPU-Sim PTX: Finding postdominators for '_Z22bpnn_layerforward_CUDAPfS_S_S_ii'...
GPGPU-Sim PTX: Finding immediate postdominators for '_Z22bpnn_layerforward_CUDAPfS_S_S_ii'...
GPGPU-Sim PTX: pre-decoding instructions for '_Z22bpnn_layerforward_CUDAPfS_S_S_ii'...
GPGPU-Sim PTX: reconvergence points for _Z22bpnn_layerforward_CUDAPfS_S_S_ii...
GPGPU-Sim PTX:  1 (potential) branch divergence @  PC=0x068 (BP.1.sm_30.ptx:48) @%p2 bra BB0_2;
GPGPU-Sim PTX:    immediate post dominator      @  PC=0x098 (BP.1.sm_30.ptx:57) cvta.to.global.u64 %rd1, %rd4;
GPGPU-Sim PTX:  2 (potential) branch divergence @  PC=0x150 (BP.1.sm_30.ptx:80) @%p3 bra BB0_7;
GPGPU-Sim PTX:    immediate post dominator      @  PC=0x228 (BP.1.sm_30.ptx:115) setp.eq.s32%p1, %r4, 0;
GPGPU-Sim PTX:  3 (potential) branch divergence @  PC=0x1a0 (BP.1.sm_30.ptx:93) @%p4 bra BB0_6;
GPGPU-Sim PTX:    immediate post dominator      @  PC=0x200 (BP.1.sm_30.ptx:108) bar.sync 0;
GPGPU-Sim PTX:  4 (potential) branch divergence @  PC=0x220 (BP.1.sm_30.ptx:112) @%p5 bra BB0_4;
GPGPU-Sim PTX:    immediate post dominator      @  PC=0x228 (BP.1.sm_30.ptx:115) setp.eq.s32%p1, %r4, 0;
GPGPU-Sim PTX:  5 (potential) branch divergence @  PC=0x248 (BP.1.sm_30.ptx:119) @!%p1 bra BB0_9;
GPGPU-Sim PTX:    immediate post dominator      @  PC=0x290 (BP.1.sm_30.ptx:132) ret;
GPGPU-Sim PTX:  6 (potential) branch divergence @  PC=0x250 (BP.1.sm_30.ptx:120) bra.uni BB0_8;
GPGPU-Sim PTX:    immediate post dominator      @  PC=0x258 (BP.1.sm_30.ptx:123) cvta.to.global.u64 %rd10, %rd5;
GPGPU-Sim PTX: ... end of reconvergence points for _Z22bpnn_layerforward_CUDAPfS_S_S_ii
GPGPU-Sim PTX: ... done pre-decoding instructions for '_Z22bpnn_layerforward_CUDAPfS_S_S_ii'.
GPGPU-Sim PTX: pushing kernel '_Z22bpnn_layerforward_CUDAPfS_S_S_ii' to stream 0, gridDim= (1,4096,1) blockDim = (16,16,1) 
GPGPU-Sim uArch: Shader 0 bind to kernel 1 '_Z22bpnn_layerforward_CUDAPfS_S_S_ii'
GPGPU-Sim uArch: CTA/core = 8, limited by: threads
GPGPU-Sim: Reconfigure L1 cache to 112KB
GPGPU-Sim uArch: Shader 2 bind to kernel 1 '_Z22bpnn_layerforward_CUDAPfS_S_S_ii'
GPGPU-Sim uArch: Shader 4 bind to kernel 1 '_Z22bpnn_layerforward_CUDAPfS_S_S_ii'
GPGPU-Sim uArch: Shader 6 bind to kernel 1 '_Z22bpnn_layerforward_CUDAPfS_S_S_ii'
GPGPU-Sim uArch: Shader 8 bind to kernel 1 '_Z22bpnn_layerforward_CUDAPfS_S_S_ii'
GPGPU-Sim uArch: Shader 10 bind to kernel 1 '_Z22bpnn_layerforward_CUDAPfS_S_S_ii'
GPGPU-Sim uArch: Shader 12 bind to kernel 1 '_Z22bpnn_layerforward_CUDAPfS_S_S_ii'
GPGPU-Sim uArch: Shader 14 bind to kernel 1 '_Z22bpnn_layerforward_CUDAPfS_S_S_ii'
GPGPU-Sim uArch: Shader 16 bind to kernel 1 '_Z22bpnn_layerforward_CUDAPfS_S_S_ii'
GPGPU-Sim uArch: Shader 18 bind to kernel 1 '_Z22bpnn_layerforward_CUDAPfS_S_S_ii'
GPGPU-Sim uArch: Shader 20 bind to kernel 1 '_Z22bpnn_layerforward_CUDAPfS_S_S_ii'
GPGPU-Sim uArch: Shader 22 bind to kernel 1 '_Z22bpnn_layerforward_CUDAPfS_S_S_ii'
GPGPU-Sim uArch: Shader 24 bind to kernel 1 '_Z22bpnn_layerforward_CUDAPfS_S_S_ii'
GPGPU-Sim uArch: Shader 26 bind to kernel 1 '_Z22bpnn_layerforward_CUDAPfS_S_S_ii'
GPGPU-Sim uArch: Shader 28 bind to kernel 1 '_Z22bpnn_layerforward_CUDAPfS_S_S_ii'
GPGPU-Sim uArch: Shader 30 bind to kernel 1 '_Z22bpnn_layerforward_CUDAPfS_S_S_ii'
GPGPU-Sim uArch: Shader 32 bind to kernel 1 '_Z22bpnn_layerforward_CUDAPfS_S_S_ii'
GPGPU-Sim uArch: Shader 34 bind to kernel 1 '_Z22bpnn_layerforward_CUDAPfS_S_S_ii'
GPGPU-Sim uArch: Shader 36 bind to kernel 1 '_Z22bpnn_layerforward_CUDAPfS_S_S_ii'
GPGPU-Sim uArch: Shader 38 bind to kernel 1 '_Z22bpnn_layerforward_CUDAPfS_S_S_ii'
GPGPU-Sim uArch: Shader 40 bind to kernel 1 '_Z22bpnn_layerforward_CUDAPfS_S_S_ii'
GPGPU-Sim uArch: Shader 42 bind to kernel 1 '_Z22bpnn_layerforward_CUDAPfS_S_S_ii'
GPGPU-Sim uArch: Shader 44 bind to kernel 1 '_Z22bpnn_layerforward_CUDAPfS_S_S_ii'
GPGPU-Sim uArch: Shader 46 bind to kernel 1 '_Z22bpnn_layerforward_CUDAPfS_S_S_ii'
GPGPU-Sim uArch: Shader 48 bind to kernel 1 '_Z22bpnn_layerforward_CUDAPfS_S_S_ii'
GPGPU-Sim uArch: Shader 50 bind to kernel 1 '_Z22bpnn_layerforward_CUDAPfS_S_S_ii'
GPGPU-Sim uArch: Shader 52 bind to kernel 1 '_Z22bpnn_layerforward_CUDAPfS_S_S_ii'
GPGPU-Sim uArch: Shader 54 bind to kernel 1 '_Z22bpnn_layerforward_CUDAPfS_S_S_ii'
GPGPU-Sim uArch: Shader 56 bind to kernel 1 '_Z22bpnn_layerforward_CUDAPfS_S_S_ii'
GPGPU-Sim uArch: Shader 58 bind to kernel 1 '_Z22bpnn_layerforward_CUDAPfS_S_S_ii'
GPGPU-Sim uArch: Shader 60 bind to kernel 1 '_Z22bpnn_layerforward_CUDAPfS_S_S_ii'
GPGPU-Sim uArch: Shader 62 bind to kernel 1 '_Z22bpnn_layerforward_CUDAPfS_S_S_ii'
GPGPU-Sim uArch: Shader 64 bind to kernel 1 '_Z22bpnn_layerforward_CUDAPfS_S_S_ii'
GPGPU-Sim uArch: Shader 66 bind to kernel 1 '_Z22bpnn_layerforward_CUDAPfS_S_S_ii'
GPGPU-Sim uArch: Shader 68 bind to kernel 1 '_Z22bpnn_layerforward_CUDAPfS_S_S_ii'
GPGPU-Sim uArch: Shader 70 bind to kernel 1 '_Z22bpnn_layerforward_CUDAPfS_S_S_ii'
GPGPU-Sim uArch: Shader 72 bind to kernel 1 '_Z22bpnn_layerforward_CUDAPfS_S_S_ii'
GPGPU-Sim uArch: Shader 74 bind to kernel 1 '_Z22bpnn_layerforward_CUDAPfS_S_S_ii'
GPGPU-Sim uArch: Shader 76 bind to kernel 1 '_Z22bpnn_layerforward_CUDAPfS_S_S_ii'
GPGPU-Sim uArch: Shader 78 bind to kernel 1 '_Z22bpnn_layerforward_CUDAPfS_S_S_ii'
GPGPU-Sim uArch: Shader 1 bind to kernel 1 '_Z22bpnn_layerforward_CUDAPfS_S_S_ii'
GPGPU-Sim uArch: Shader 3 bind to kernel 1 '_Z22bpnn_layerforward_CUDAPfS_S_S_ii'
GPGPU-Sim uArch: Shader 5 bind to kernel 1 '_Z22bpnn_layerforward_CUDAPfS_S_S_ii'
GPGPU-Sim uArch: Shader 7 bind to kernel 1 '_Z22bpnn_layerforward_CUDAPfS_S_S_ii'
GPGPU-Sim uArch: Shader 9 bind to kernel 1 '_Z22bpnn_layerforward_CUDAPfS_S_S_ii'
GPGPU-Sim uArch: Shader 11 bind to kernel 1 '_Z22bpnn_layerforward_CUDAPfS_S_S_ii'
GPGPU-Sim uArch: Shader 13 bind to kernel 1 '_Z22bpnn_layerforward_CUDAPfS_S_S_ii'
GPGPU-Sim uArch: Shader 15 bind to kernel 1 '_Z22bpnn_layerforward_CUDAPfS_S_S_ii'
GPGPU-Sim uArch: Shader 17 bind to kernel 1 '_Z22bpnn_layerforward_CUDAPfS_S_S_ii'
GPGPU-Sim uArch: Shader 19 bind to kernel 1 '_Z22bpnn_layerforward_CUDAPfS_S_S_ii'
GPGPU-Sim uArch: Shader 21 bind to kernel 1 '_Z22bpnn_layerforward_CUDAPfS_S_S_ii'
GPGPU-Sim uArch: Shader 23 bind to kernel 1 '_Z22bpnn_layerforward_CUDAPfS_S_S_ii'
GPGPU-Sim uArch: Shader 25 bind to kernel 1 '_Z22bpnn_layerforward_CUDAPfS_S_S_ii'
GPGPU-Sim uArch: Shader 27 bind to kernel 1 '_Z22bpnn_layerforward_CUDAPfS_S_S_ii'
GPGPU-Sim uArch: Shader 29 bind to kernel 1 '_Z22bpnn_layerforward_CUDAPfS_S_S_ii'
GPGPU-Sim uArch: Shader 31 bind to kernel 1 '_Z22bpnn_layerforward_CUDAPfS_S_S_ii'
GPGPU-Sim uArch: Shader 33 bind to kernel 1 '_Z22bpnn_layerforward_CUDAPfS_S_S_ii'
GPGPU-Sim uArch: Shader 35 bind to kernel 1 '_Z22bpnn_layerforward_CUDAPfS_S_S_ii'
GPGPU-Sim uArch: Shader 37 bind to kernel 1 '_Z22bpnn_layerforward_CUDAPfS_S_S_ii'
GPGPU-Sim uArch: Shader 39 bind to kernel 1 '_Z22bpnn_layerforward_CUDAPfS_S_S_ii'
GPGPU-Sim uArch: Shader 41 bind to kernel 1 '_Z22bpnn_layerforward_CUDAPfS_S_S_ii'
GPGPU-Sim uArch: Shader 43 bind to kernel 1 '_Z22bpnn_layerforward_CUDAPfS_S_S_ii'
GPGPU-Sim uArch: Shader 45 bind to kernel 1 '_Z22bpnn_layerforward_CUDAPfS_S_S_ii'
GPGPU-Sim uArch: Shader 47 bind to kernel 1 '_Z22bpnn_layerforward_CUDAPfS_S_S_ii'
GPGPU-Sim uArch: Shader 49 bind to kernel 1 '_Z22bpnn_layerforward_CUDAPfS_S_S_ii'
GPGPU-Sim uArch: Shader 51 bind to kernel 1 '_Z22bpnn_layerforward_CUDAPfS_S_S_ii'
GPGPU-Sim uArch: Shader 53 bind to kernel 1 '_Z22bpnn_layerforward_CUDAPfS_S_S_ii'
GPGPU-Sim uArch: Shader 55 bind to kernel 1 '_Z22bpnn_layerforward_CUDAPfS_S_S_ii'
GPGPU-Sim uArch: Shader 57 bind to kernel 1 '_Z22bpnn_layerforward_CUDAPfS_S_S_ii'
GPGPU-Sim uArch: Shader 59 bind to kernel 1 '_Z22bpnn_layerforward_CUDAPfS_S_S_ii'
GPGPU-Sim uArch: Shader 61 bind to kernel 1 '_Z22bpnn_layerforward_CUDAPfS_S_S_ii'
GPGPU-Sim uArch: Shader 63 bind to kernel 1 '_Z22bpnn_layerforward_CUDAPfS_S_S_ii'
GPGPU-Sim uArch: Shader 65 bind to kernel 1 '_Z22bpnn_layerforward_CUDAPfS_S_S_ii'
GPGPU-Sim uArch: Shader 67 bind to kernel 1 '_Z22bpnn_layerforward_CUDAPfS_S_S_ii'
GPGPU-Sim uArch: Shader 69 bind to kernel 1 '_Z22bpnn_layerforward_CUDAPfS_S_S_ii'
GPGPU-Sim uArch: Shader 71 bind to kernel 1 '_Z22bpnn_layerforward_CUDAPfS_S_S_ii'
GPGPU-Sim uArch: Shader 73 bind to kernel 1 '_Z22bpnn_layerforward_CUDAPfS_S_S_ii'
GPGPU-Sim uArch: Shader 75 bind to kernel 1 '_Z22bpnn_layerforward_CUDAPfS_S_S_ii'
GPGPU-Sim uArch: Shader 77 bind to kernel 1 '_Z22bpnn_layerforward_CUDAPfS_S_S_ii'
GPGPU-Sim uArch: Shader 79 bind to kernel 1 '_Z22bpnn_layerforward_CUDAPfS_S_S_ii'
Destroy streams for kernel 1: size 0
kernel_name = _Z22bpnn_layerforward_CUDAPfS_S_S_ii 
kernel_launch_uid = 1 
kernel_stream_id = 0
gpu_sim_cycle = 27731
gpu_sim_insn = 104923136
gpu_ipc =    3783.6045
gpu_tot_sim_cycle = 27731
gpu_tot_sim_insn = 104923136
gpu_tot_ipc =    3783.6045
gpu_tot_issued_cta = 4096
gpu_occupancy = 94.2169% 
gpu_tot_occupancy = 94.2169% 
max_total_param_size = 0
gpu_stall_dramfull = 16794
gpu_stall_icnt2sh    = 0
partiton_level_parallism =      12.6991
partiton_level_parallism_total  =      12.6991
partiton_level_parallism_util =      13.7589
partiton_level_parallism_util_total  =      13.7589
L2_BW  =     487.6444 GB/Sec
L2_BW_total  =     487.6444 GB/Sec
gpu_total_sim_rate=788895

========= Core cache stats =========
L1I_cache:
	L1I_total_cache_accesses = 0
	L1I_total_cache_misses = 0
	L1I_total_cache_pending_hits = 0
	L1I_total_cache_reservation_fails = 0
L1D_cache:
	L1D_cache_core[0]: Access = 10192, Miss = 4160, Miss_rate = 0.408, Pending_hits = 1248, Reservation_fails = 3824
	L1D_cache_core[1]: Access = 10290, Miss = 4200, Miss_rate = 0.408, Pending_hits = 1260, Reservation_fails = 4074
	L1D_cache_core[2]: Access = 9702, Miss = 3958, Miss_rate = 0.408, Pending_hits = 1190, Reservation_fails = 3927
	L1D_cache_core[3]: Access = 10192, Miss = 4156, Miss_rate = 0.408, Pending_hits = 1252, Reservation_fails = 3837
	L1D_cache_core[4]: Access = 10290, Miss = 4196, Miss_rate = 0.408, Pending_hits = 1264, Reservation_fails = 3901
	L1D_cache_core[5]: Access = 9996, Miss = 4078, Miss_rate = 0.408, Pending_hits = 1226, Reservation_fails = 4016
	L1D_cache_core[6]: Access = 9702, Miss = 3954, Miss_rate = 0.408, Pending_hits = 1194, Reservation_fails = 3763
	L1D_cache_core[7]: Access = 9702, Miss = 3956, Miss_rate = 0.408, Pending_hits = 1192, Reservation_fails = 3628
	L1D_cache_core[8]: Access = 10192, Miss = 4160, Miss_rate = 0.408, Pending_hits = 1248, Reservation_fails = 3536
	L1D_cache_core[9]: Access = 9996, Miss = 4078, Miss_rate = 0.408, Pending_hits = 1226, Reservation_fails = 3511
	L1D_cache_core[10]: Access = 10094, Miss = 4120, Miss_rate = 0.408, Pending_hits = 1236, Reservation_fails = 3429
	L1D_cache_core[11]: Access = 9996, Miss = 4076, Miss_rate = 0.408, Pending_hits = 1228, Reservation_fails = 4005
	L1D_cache_core[12]: Access = 10094, Miss = 4118, Miss_rate = 0.408, Pending_hits = 1238, Reservation_fails = 4342
	L1D_cache_core[13]: Access = 9898, Miss = 4038, Miss_rate = 0.408, Pending_hits = 1214, Reservation_fails = 3933
	L1D_cache_core[14]: Access = 9996, Miss = 4080, Miss_rate = 0.408, Pending_hits = 1224, Reservation_fails = 3717
	L1D_cache_core[15]: Access = 10094, Miss = 4118, Miss_rate = 0.408, Pending_hits = 1238, Reservation_fails = 4370
	L1D_cache_core[16]: Access = 10192, Miss = 4160, Miss_rate = 0.408, Pending_hits = 1248, Reservation_fails = 3860
	L1D_cache_core[17]: Access = 9702, Miss = 3960, Miss_rate = 0.408, Pending_hits = 1188, Reservation_fails = 4253
	L1D_cache_core[18]: Access = 9898, Miss = 4038, Miss_rate = 0.408, Pending_hits = 1214, Reservation_fails = 3350
	L1D_cache_core[19]: Access = 9800, Miss = 3998, Miss_rate = 0.408, Pending_hits = 1202, Reservation_fails = 4056
	L1D_cache_core[20]: Access = 10388, Miss = 4238, Miss_rate = 0.408, Pending_hits = 1274, Reservation_fails = 3547
	L1D_cache_core[21]: Access = 10388, Miss = 4240, Miss_rate = 0.408, Pending_hits = 1272, Reservation_fails = 3889
	L1D_cache_core[22]: Access = 10290, Miss = 4198, Miss_rate = 0.408, Pending_hits = 1262, Reservation_fails = 3734
	L1D_cache_core[23]: Access = 9800, Miss = 3996, Miss_rate = 0.408, Pending_hits = 1204, Reservation_fails = 3978
	L1D_cache_core[24]: Access = 10094, Miss = 4118, Miss_rate = 0.408, Pending_hits = 1238, Reservation_fails = 3747
	L1D_cache_core[25]: Access = 9898, Miss = 4034, Miss_rate = 0.408, Pending_hits = 1218, Reservation_fails = 3994
	L1D_cache_core[26]: Access = 9800, Miss = 3994, Miss_rate = 0.408, Pending_hits = 1206, Reservation_fails = 3396
	L1D_cache_core[27]: Access = 10192, Miss = 4156, Miss_rate = 0.408, Pending_hits = 1252, Reservation_fails = 4403
	L1D_cache_core[28]: Access = 10192, Miss = 4160, Miss_rate = 0.408, Pending_hits = 1248, Reservation_fails = 3761
	L1D_cache_core[29]: Access = 9898, Miss = 4034, Miss_rate = 0.408, Pending_hits = 1218, Reservation_fails = 3660
	L1D_cache_core[30]: Access = 9996, Miss = 4080, Miss_rate = 0.408, Pending_hits = 1224, Reservation_fails = 3694
	L1D_cache_core[31]: Access = 9898, Miss = 4038, Miss_rate = 0.408, Pending_hits = 1214, Reservation_fails = 3606
	L1D_cache_core[32]: Access = 9898, Miss = 4036, Miss_rate = 0.408, Pending_hits = 1216, Reservation_fails = 3675
	L1D_cache_core[33]: Access = 9898, Miss = 4036, Miss_rate = 0.408, Pending_hits = 1216, Reservation_fails = 3759
	L1D_cache_core[34]: Access = 10192, Miss = 4156, Miss_rate = 0.408, Pending_hits = 1252, Reservation_fails = 3465
	L1D_cache_core[35]: Access = 9800, Miss = 3994, Miss_rate = 0.408, Pending_hits = 1206, Reservation_fails = 3662
	L1D_cache_core[36]: Access = 10192, Miss = 4158, Miss_rate = 0.408, Pending_hits = 1250, Reservation_fails = 3881
	L1D_cache_core[37]: Access = 10192, Miss = 4160, Miss_rate = 0.408, Pending_hits = 1248, Reservation_fails = 3694
	L1D_cache_core[38]: Access = 10192, Miss = 4154, Miss_rate = 0.408, Pending_hits = 1254, Reservation_fails = 3756
	L1D_cache_core[39]: Access = 10192, Miss = 4160, Miss_rate = 0.408, Pending_hits = 1248, Reservation_fails = 4087
	L1D_total_cache_accesses = 401408
	L1D_total_cache_misses = 163742
	L1D_total_cache_miss_rate = 0.4079
	L1D_total_cache_pending_hits = 49250
	L1D_total_cache_reservation_fails = 152720
	L1D_cache_data_port_util = 0.087
	L1D_cache_fill_port_util = 0.072
L1C_cache:
	L1C_total_cache_accesses = 0
	L1C_total_cache_misses = 0
	L1C_total_cache_pending_hits = 0
	L1C_total_cache_reservation_fails = 0
L1T_cache:
	L1T_total_cache_accesses = 0
	L1T_total_cache_misses = 0
	L1T_total_cache_pending_hits = 0
	L1T_total_cache_reservation_fails = 0

Total_core_cache_stats:
	Total_core_cache_stats_breakdown[GLOBAL_ACC_R][HIT] = 0
	Total_core_cache_stats_breakdown[GLOBAL_ACC_R][HIT_RESERVED] = 49250
	Total_core_cache_stats_breakdown[GLOBAL_ACC_R][MISS] = 44923
	Total_core_cache_stats_breakdown[GLOBAL_ACC_R][RESERVATION_FAIL] = 88604
	Total_core_cache_stats_breakdown[GLOBAL_ACC_R][SECTOR_MISS] = 110627
	Total_core_cache_stats_breakdown[GLOBAL_ACC_R][MSHR_HIT] = 49250
	Total_core_cache_stats_breakdown[LOCAL_ACC_R][HIT] = 0
	Total_core_cache_stats_breakdown[LOCAL_ACC_R][HIT_RESERVED] = 0
	Total_core_cache_stats_breakdown[LOCAL_ACC_R][MISS] = 0
	Total_core_cache_stats_breakdown[LOCAL_ACC_R][RESERVATION_FAIL] = 0
	Total_core_cache_stats_breakdown[LOCAL_ACC_R][SECTOR_MISS] = 0
	Total_core_cache_stats_breakdown[LOCAL_ACC_R][MSHR_HIT] = 0
	Total_core_cache_stats_breakdown[CONST_ACC_R][HIT] = 0
	Total_core_cache_stats_breakdown[CONST_ACC_R][HIT_RESERVED] = 0
	Total_core_cache_stats_breakdown[CONST_ACC_R][MISS] = 0
	Total_core_cache_stats_breakdown[CONST_ACC_R][RESERVATION_FAIL] = 0
	Total_core_cache_stats_breakdown[CONST_ACC_R][SECTOR_MISS] = 0
	Total_core_cache_stats_breakdown[CONST_ACC_R][MSHR_HIT] = 0
	Total_core_cache_stats_breakdown[TEXTURE_ACC_R][HIT] = 0
	Total_core_cache_stats_breakdown[TEXTURE_ACC_R][HIT_RESERVED] = 0
	Total_core_cache_stats_breakdown[TEXTURE_ACC_R][MISS] = 0
	Total_core_cache_stats_breakdown[TEXTURE_ACC_R][RESERVATION_FAIL] = 0
	Total_core_cache_stats_breakdown[TEXTURE_ACC_R][SECTOR_MISS] = 0
	Total_core_cache_stats_breakdown[TEXTURE_ACC_R][MSHR_HIT] = 0
	Total_core_cache_stats_breakdown[GLOBAL_ACC_W][HIT] = 188416
	Total_core_cache_stats_breakdown[GLOBAL_ACC_W][HIT_RESERVED] = 0
	Total_core_cache_stats_breakdown[GLOBAL_ACC_W][MISS] = 4076
	Total_core_cache_stats_breakdown[GLOBAL_ACC_W][RESERVATION_FAIL] = 64116
	Total_core_cache_stats_breakdown[GLOBAL_ACC_W][SECTOR_MISS] = 4116
	Total_core_cache_stats_breakdown[GLOBAL_ACC_W][MSHR_HIT] = 0
	Total_core_cache_stats_breakdown[LOCAL_ACC_W][HIT] = 0
	Total_core_cache_stats_breakdown[LOCAL_ACC_W][HIT_RESERVED] = 0
	Total_core_cache_stats_breakdown[LOCAL_ACC_W][MISS] = 0
	Total_core_cache_stats_breakdown[LOCAL_ACC_W][RESERVATION_FAIL] = 0
	Total_core_cache_stats_breakdown[LOCAL_ACC_W][SECTOR_MISS] = 0
	Total_core_cache_stats_breakdown[LOCAL_ACC_W][MSHR_HIT] = 0
	Total_core_cache_stats_breakdown[L1_WRBK_ACC][HIT] = 0
	Total_core_cache_stats_breakdown[L1_WRBK_ACC][HIT_RESERVED] = 0
	Total_core_cache_stats_breakdown[L1_WRBK_ACC][MISS] = 0
	Total_core_cache_stats_breakdown[L1_WRBK_ACC][RESERVATION_FAIL] = 0
	Total_core_cache_stats_breakdown[L1_WRBK_ACC][SECTOR_MISS] = 0
	Total_core_cache_stats_breakdown[L1_WRBK_ACC][MSHR_HIT] = 0
	Total_core_cache_stats_breakdown[L2_WRBK_ACC][HIT] = 0
	Total_core_cache_stats_breakdown[L2_WRBK_ACC][HIT_RESERVED] = 0
	Total_core_cache_stats_breakdown[L2_WRBK_ACC][MISS] = 0
	Total_core_cache_stats_breakdown[L2_WRBK_ACC][RESERVATION_FAIL] = 0
	Total_core_cache_stats_breakdown[L2_WRBK_ACC][SECTOR_MISS] = 0
	Total_core_cache_stats_breakdown[L2_WRBK_ACC][MSHR_HIT] = 0
	Total_core_cache_stats_breakdown[INST_ACC_R][HIT] = 0
	Total_core_cache_stats_breakdown[INST_ACC_R][HIT_RESERVED] = 0
	Total_core_cache_stats_breakdown[INST_ACC_R][MISS] = 0
	Total_core_cache_stats_breakdown[INST_ACC_R][RESERVATION_FAIL] = 0
	Total_core_cache_stats_breakdown[INST_ACC_R][SECTOR_MISS] = 0
	Total_core_cache_stats_breakdown[INST_ACC_R][MSHR_HIT] = 0
	Total_core_cache_stats_breakdown[L1_WR_ALLOC_R][HIT] = 0
	Total_core_cache_stats_breakdown[L1_WR_ALLOC_R][HIT_RESERVED] = 0
	Total_core_cache_stats_breakdown[L1_WR_ALLOC_R][MISS] = 0
	Total_core_cache_stats_breakdown[L1_WR_ALLOC_R][RESERVATION_FAIL] = 0
	Total_core_cache_stats_breakdown[L1_WR_ALLOC_R][SECTOR_MISS] = 0
	Total_core_cache_stats_breakdown[L1_WR_ALLOC_R][MSHR_HIT] = 0
	Total_core_cache_stats_breakdown[L2_WR_ALLOC_R][HIT] = 0
	Total_core_cache_stats_breakdown[L2_WR_ALLOC_R][HIT_RESERVED] = 0
	Total_core_cache_stats_breakdown[L2_WR_ALLOC_R][MISS] = 0
	Total_core_cache_stats_breakdown[L2_WR_ALLOC_R][RESERVATION_FAIL] = 0
	Total_core_cache_stats_breakdown[L2_WR_ALLOC_R][SECTOR_MISS] = 0
	Total_core_cache_stats_breakdown[L2_WR_ALLOC_R][MSHR_HIT] = 0
	Total_core_cache_stats_breakdown[GLOBAL_ACC_R][TOTAL_ACCESS] = 204800
	Total_core_cache_stats_breakdown[GLOBAL_ACC_W][TOTAL_ACCESS] = 196608

Total_core_cache_fail_stats:
	Total_core_cache_fail_stats_breakdown[GLOBAL_ACC_R][MISS_QUEUE_FULL] = 88604
	Total_core_cache_fail_stats_breakdown[GLOBAL_ACC_W][MISS_QUEUE_FULL] = 64116
ctas_completed 4096, Shader 0 warp_id issue ditsribution:
warp_id:
0, 1, 2, 3, 4, 5, 6, 7, 8, 9, 10, 11, 12, 13, 14, 15, 16, 17, 18, 19, 20, 21, 22, 23, 24, 25, 26, 27, 28, 29, 30, 31, 32, 33, 34, 35, 36, 37, 38, 39, 40, 41, 42, 43, 44, 45, 46, 47, 48, 49, 50, 51, 52, 53, 54, 55, 56, 57, 58, 59, 60, 61, 62, 63, 
distro:
1043, 812, 889, 812, 966, 812, 889, 812, 1043, 812, 889, 812, 966, 812, 889, 812, 1043, 812, 889, 812, 966, 812, 889, 812, 1043, 812, 889, 812, 966, 812, 889, 812, 894, 696, 762, 696, 828, 696, 762, 696, 894, 696, 762, 696, 828, 696, 762, 696, 894, 696, 762, 696, 828, 696, 762, 696, 894, 696, 762, 696, 828, 696, 762, 696, 
gpgpu_n_tot_thrd_icount = 131727360
gpgpu_n_tot_w_icount = 4116480
gpgpu_n_stall_shd_mem = 74327
gpgpu_n_mem_read_local = 0
gpgpu_n_mem_write_local = 0
gpgpu_n_mem_read_global = 155550
gpgpu_n_mem_write_global = 196608
gpgpu_n_mem_texture = 0
gpgpu_n_mem_const = 0
gpgpu_n_load_insn  = 1114112
gpgpu_n_store_insn = 1114112
gpgpu_n_shmem_insn = 8323072
gpgpu_n_sstarr_insn = 0
gpgpu_n_tex_insn = 0
gpgpu_n_const_mem_insn = 0
gpgpu_n_param_mem_insn = 4194304
gpgpu_n_shmem_bkconflict = 0
gpgpu_n_l1cache_bkconflict = 9107
gpgpu_n_intrawarp_mshr_merge = 0
gpgpu_n_cmem_portconflict = 0
gpgpu_stall_shd_mem[c_mem][resource_stall] = 0
gpgpu_stall_shd_mem[s_mem][bk_conf] = 0
gpgpu_stall_shd_mem[gl_mem][resource_stall] = 9107
gpgpu_stall_shd_mem[gl_mem][coal_stall] = 65220
gpgpu_stall_shd_mem[gl_mem][data_port_stall] = 0
gpu_reg_bank_conflict_stalls = 0
Warp Occupancy Distribution:
Stall:946863	W0_Idle:99465	W0_Scoreboard:3488908	W1:0	W2:425984	W3:0	W4:0	W5:0	W6:0	W7:0	W8:0	W9:0	W10:0	W11:0	W12:0	W13:0	W14:0	W15:0	W16:675840	W17:0	W18:0	W19:0	W20:0	W21:0	W22:0	W23:0	W24:0	W25:0	W26:0	W27:0	W28:0	W29:0	W30:0	W31:0	W32:3014656
single_issue_nums: WS0:1175552	WS1:950272	WS2:1040384	WS3:950272	
dual_issue_nums: WS0:0	WS1:0	WS2:0	WS3:0	
traffic_breakdown_coretomem[GLOBAL_ACC_R] = 1244400 {8:155550,}
traffic_breakdown_coretomem[GLOBAL_ACC_W] = 7864320 {40:196608,}
traffic_breakdown_memtocore[GLOBAL_ACC_R] = 6222000 {40:155550,}
traffic_breakdown_memtocore[GLOBAL_ACC_W] = 1572864 {8:196608,}
maxmflatency = 1619 
max_icnt2mem_latency = 900 
maxmrqlatency = 5346 
max_icnt2sh_latency = 364 
averagemflatency = 376 
avg_icnt2mem_latency = 133 
avg_mrq_latency = 146 
avg_icnt2sh_latency = 25 
mrq_lat_table:12453 	12871 	8124 	7181 	7993 	8942 	4973 	1387 	2343 	5665 	1748 	736 	30 	0 	0 	0 	0 	0 	0 	0 	0 	0 	0 	0 	0 	0 	0 	0 	0 	0 	0 	0 	
dq_lat_table:0 	0 	0 	0 	0 	0 	0 	0 	0 	0 	0 	0 	0 	0 	0 	0 	0 	0 	0 	0 	0 	0 	0 	0 	0 	0 	0 	0 	0 	0 	0 	0 	
mf_lat_table:0 	0 	0 	0 	0 	0 	0 	135766 	149966 	60309 	6117 	0 	0 	0 	0 	0 	0 	0 	0 	0 	0 	0 	0 	0 	0 	0 	0 	0 	0 	0 	0 	0 	
icnt2mem_lat_table:0 	0 	0 	0 	48903 	109711 	80271 	62264 	38134 	12875 	0 	0 	0 	0 	0 	0 	0 	0 	0 	0 	0 	0 	0 	0 	
icnt2sh_lat_table:0 	105401 	55157 	51508 	53550 	47180 	27620 	10558 	1184 	0 	0 	0 	0 	0 	0 	0 	0 	0 	0 	0 	0 	0 	0 	0 	
mf_lat_pw_table:0 	0 	0 	0 	0 	0 	0 	11 	39 	2 	1 	0 	0 	0 	0 	0 	0 	0 	0 	0 	0 	0 	0 	0 	0 	0 	0 	0 	0 	0 	0 	0 	
maximum concurrent accesses to same row:
dram[0]:        77        77        88        88        96        96        97        85        99        64        88        95        95        94       106       106 
dram[1]:        72        72        80        88        96        96        98        81        64       103        96       102        88        95       106        95 
dram[2]:        79        80        88        88        96        96        96       104        96        66       102        95        98       101        64       108 
dram[3]:        79        72        88        78        96        96        94        98        96       102        97        89       103        98        64       108 
dram[4]:        77        76        88        68        96        96        83        82       100        78        84        99        82        99       102       106 
dram[5]:        76        76        88        72        96        96        88        99        92        97        87        93        92       100        64       106 
dram[6]:        72        80        88        64        96        96        87        80       100       102        83       102        93        96        72       106 
dram[7]:        72        80        88        70        96        96        88        79        73        96        74       100        96        91        75       105 
dram[8]:         0         0        24        24        32        32        32        32        32        32        32        32        16        16         0         0 
dram[9]:         0         0        24        24        32        32        32        32        32        32        32        32        16        16         0         0 
dram[10]:         0         0        24        24        32        32        32        32        32        32        32        32        16        16         0         0 
dram[11]:         0         0        24        24        32        32        32        32        32        32        32        32        16        16         0         0 
dram[12]:         0         0        24        24        32        32        32        28        32        32        32        32        16        16         0         0 
dram[13]:         0         0        24        24        32        32        32        32        32        32        32        32        16        16         0         0 
dram[14]:         0         0        24        24        32        32        32        32        32        32        32        32        16        16         0         0 
dram[15]:         0         0        24        24        32        32        32        32        32        32        32        32        16        16         0         0 
dram[16]:         0         0        24        24        32        32        32        32        32        32        32        32        16        16         0         0 
dram[17]:         0         0        24        24        32        32        32        32        32        32        32        32        16        16         0         0 
dram[18]:         0         0        24        24        32        32        32        32        32        32        32        32        16        16         0         0 
dram[19]:         0         0        24        24        32        32        32        32        32        32        32        32        16        16         0         0 
dram[20]:         0         0        24        24        32        32        32        32        32        32        32        32        16        24         0         0 
dram[21]:         0         0        24        24        32        32        32        32        32        32        32        32        16        16         0         0 
dram[22]:         0         0        24        24        32        32        32        32        32        32        32        32        16        24         0         0 
dram[23]:         0         0        24        24        32        32        32        32        32        32        32        32        16        24         0         0 
maximum service time to same row:
dram[0]:      4539      4553      4789      4770      5157      5240      4255      4142      4639      4564      4453      4607      4535      4903      4584      4711 
dram[1]:      3647      3555      4916      4595      5148      5238      4316      4052      4648      4638      4536      4624      4677      5016      4563      4686 
dram[2]:      4594      4629      4930      4698      5204      5108      4282      4262      4746      4621      4428      4586      4691      4906      4646      4775 
dram[3]:      4536      3816      4935      4893      5208      5097      4226      4250      4717      4657      4417      4547      4669      4889      4697      4692 
dram[4]:      4563      4582      4929      5020      5178      5068      4290      4267      4689      4617      4505      4535      4710      4898      4787      4714 
dram[5]:      4510      3655      4912      4974      5167      5096      4278      4267      4663      4542      4473      4483      4695      4720      5006      4677 
dram[6]:      3662      3723      4942      4658      5043      5104      4277      4282      4555      4450      4525      4512      4589      4772      4760      4703 
dram[7]:      3766      3833      4776      4618      5069      5014      4254      4231      4614      4512      4632      4516      4630      4742      4731      4799 
dram[8]:     12928     12843      9242      9451     15966     15994     16460     16678     18668     19268     19345     19490     10429     10438     14439     14314 
dram[9]:     12918     12795      9178      9434     15913     15987     16459     16594     18675     19354     19333     19480     10392     10462     14441     14275 
dram[10]:     12918     12802      9154      9547     15913     15953     16483     16692     18591     19234     19373     19449     10436     10483     14457     14436 
dram[11]:     12881     12824      9322      9456     15921     15970     16457     16683     18582     19254     19395     19490     10426     10435     14444     14429 
dram[12]:     12894     12773      9181      9742     15917     15946     16450     16553     18569     19225     19544     19419     10560     10408     14504     14333 
dram[13]:     12860     12770      9288      9462     15915     15938     16465     16590     18560     19220     19563     19459     10563     10405     14495     14440 
dram[14]:     12866     12740      9473      9513     15927     15994     16457     16558     18555     19297     19542     19467     10308     10421     14522     14289 
dram[15]:     12749     12737      9312      9555     15921     15966     16491     16561     18565     19309     19553     19422     10316     10395     14505     14303 
dram[16]:     12922     12987      9033      9315     15877     15941     16577     16603     18678     19357     19531     19462     10340     10390     14402     14406 
dram[17]:     12900     12745      9116      9363     15869     15937     16582     16606     18685     19357     19532     19477     10330     10402     14398     14343 
dram[18]:     12907     12948      9111      9401     15867     15913     16609     16625     18577     19336     19527     19377     10466     10409     14432     14426 
dram[19]:         0     12966      9044      9368     15881     15918     16582     16641     18561     19346     19527     19398     10346     10405     14482     14436 
dram[20]:     12860     12761      9092      9636     15887     15929     16649     16597     18564     19354     19460     19373     10501     10429     14461     14475 
dram[21]:     12846     12770      9177      9407     15963     15925     16597     16693     18548     19339     19465     19380     10469     10559     14454     14480 
dram[22]:     12829     12740      9152      9408     15953     15985     16604     16603     18553     19369     19456     19371     10625     10603     14439     14456 
dram[23]:     12855     12745      9152      9393     15970     15942     16570     16596     18711     19381     19446     19369     10520     10579     14430     14489 
average row accesses per activate:
dram[0]: 31.214285 43.599998 28.235294 28.176470 33.066666 37.846153 37.500000 32.625000 45.272728 45.090908 41.333332 41.333332 36.461540 42.909092 39.166668 39.000000 
dram[1]: 31.500000 39.909092 31.333334 25.105263 35.071430 37.846153 34.799999 34.933334 45.090908 41.416668 45.090908 35.571430 39.916668 39.333332 39.000000 39.000000 
dram[2]: 40.090908 44.799999 32.133335 25.157894 27.444445 34.785713 40.153847 37.428570 41.333332 49.500000 38.153847 35.428570 39.416668 36.153847 36.076923 38.916668 
dram[3]: 33.923077 36.666668 28.470589 26.611111 30.562500 32.466667 37.285713 37.428570 45.090908 41.416668 41.333332 45.090908 39.333332 52.222221 36.153847 38.833332 
dram[4]: 40.090908 34.230770 32.000000 28.352942 28.941177 40.916668 30.588236 37.071430 41.416668 49.500000 33.066666 45.090908 36.461540 47.900002 38.500000 39.000000 
dram[5]: 40.090908 34.076923 31.933332 31.866667 27.444445 35.214287 32.687500 39.461540 45.090908 38.230770 31.125000 41.416668 40.166668 47.900002 35.846153 39.000000 
dram[6]: 39.909092 40.272728 30.062500 19.958334 32.799999 37.769230 31.235294 30.882353 45.181820 45.181820 38.153847 35.571430 43.818180 39.583332 36.000000 42.545456 
dram[7]: 36.666668 37.166668 30.187500 22.904762 25.684210 37.384617 31.117647 30.823530 49.599998 38.230770 38.153847 41.333332 43.636364 43.272728 39.000000 39.000000 
dram[8]:  8.000000 12.000000 18.666666 18.666666 32.000000 32.000000 32.000000 32.000000 32.000000 32.000000 32.000000 32.000000 20.000000 20.000000 32.000000 32.000000 
dram[9]:  8.000000  8.000000 18.666666 18.666666 32.000000 32.000000 32.000000 32.000000 32.000000 32.000000 32.000000 32.000000 20.000000 20.000000 32.000000 32.000000 
dram[10]:  8.000000 12.000000 18.666666 18.666666 32.000000 32.000000 32.000000 32.000000 32.000000 32.000000 32.000000 32.000000 20.000000 20.000000 32.000000 32.000000 
dram[11]:  8.000000 12.000000 18.666666 18.666666 32.000000 32.000000 32.000000 32.000000 32.000000 32.000000 32.000000 32.000000 20.000000 20.000000 32.000000 32.000000 
dram[12]:  8.000000  8.000000 18.666666 18.666666 32.000000 32.000000 32.000000 30.000000 32.000000 32.000000 32.000000 32.000000 20.000000 20.000000 32.000000 32.000000 
dram[13]:  8.000000  8.000000 18.666666 18.666666 32.000000 32.000000 32.000000 32.000000 32.000000 32.000000 32.000000 32.000000 20.000000 20.000000 32.000000 32.000000 
dram[14]:  8.000000  8.000000 18.666666 18.666666 32.000000 32.000000 32.000000 32.000000 32.000000 32.000000 32.000000 32.000000 20.000000 20.000000 32.000000 32.000000 
dram[15]: 12.000000 12.000000 18.666666 18.666666 32.000000 32.000000 32.000000 32.000000 32.000000 32.000000 32.000000 32.000000 20.000000 20.000000 32.000000 32.000000 
dram[16]:  4.000000  8.000000 18.666666 18.666666 32.000000 32.000000 32.000000 32.000000 32.000000 32.000000 32.000000 32.000000 16.000000 20.000000 32.000000 32.000000 
dram[17]:  8.000000  8.000000 18.666666 18.666666 32.000000 32.000000 32.000000 32.000000 32.000000 32.000000 32.000000 32.000000 16.000000 20.000000 32.000000 32.000000 
dram[18]:  8.000000  8.000000 16.000000 18.666666 32.000000 32.000000 32.000000 32.000000 32.000000 32.000000 32.000000 32.000000 20.000000 20.000000 32.000000 32.000000 
dram[19]:      -nan  8.000000 17.333334 18.666666 32.000000 32.000000 32.000000 32.000000 32.000000 32.000000 32.000000 32.000000 20.000000 20.000000 32.000000 32.000000 
dram[20]:  8.000000  8.000000 18.666666 18.666666 32.000000 32.000000 32.000000 32.000000 32.000000 32.000000 32.000000 32.000000 16.000000 24.000000 32.000000 32.000000 
dram[21]:  4.000000 12.000000 18.666666 18.666666 32.000000 32.000000 32.000000 32.000000 32.000000 32.000000 32.000000 32.000000 16.000000 20.000000 32.000000 32.000000 
dram[22]:  8.000000  8.000000 18.666666 18.666666 32.000000 32.000000 32.000000 32.000000 32.000000 32.000000 32.000000 32.000000 18.000000 24.000000 32.000000 32.000000 
dram[23]:  8.000000  4.000000 18.666666 18.666666 32.000000 32.000000 32.000000 32.000000 32.000000 32.000000 32.000000 32.000000 16.000000 24.000000 32.000000 32.000000 
average row locality = 74446/2191 = 33.978092
number of total memory accesses made:
dram[0]:         0         0         0         0         0         0         0         0         0         0         0         0         0         0         0         0 
dram[1]:         0         0         0         0         0         0         0         0         0         0         0         0         0         0         0         0 
dram[2]:         0         0         0         0         0         0         0         0         0         0         0         0         0         0         0         0 
dram[3]:         0         0         0         0         0         0         0         0         0         0         0         0         0         0         0         0 
dram[4]:         0         0         0         0         0         0         0         0         0         0         0         0         0         0         0         0 
dram[5]:         0         0         0         0         0         0         0         0         0         0         0         0         0         0         0         0 
dram[6]:         0         0         0         0         0         0         0         0         0         0         0         0         0         0         0         0 
dram[7]:         0         0         0         0         0         0         0         0         0         0         0         0         0         0         0         0 
dram[8]:         0         0         0         0         0         0         0         0         0         0         0         0         0         0         0         0 
dram[9]:         0         0         0         0         0         0         0         0         0         0         0         0         0         0         0         0 
dram[10]:         0         0         0         0         0         0         0         0         0         0         0         0         0         0         0         0 
dram[11]:         0         0         0         0         0         0         0         0         0         0         0         0         0         0         0         0 
dram[12]:         0         0         0         0         0         0         0         0         0         0         0         0         0         0         0         0 
dram[13]:         0         0         0         0         0         0         0         0         0         0         0         0         0         0         0         0 
dram[14]:         0         0         0         0         0         0         0         0         0         0         0         0         0         0         0         0 
dram[15]:         0         0         0         0         0         0         0         0         0         0         0         0         0         0         0         0 
dram[16]:         0         0         0         0         0         0         0         0         0         0         0         0         0         0         0         0 
dram[17]:         0         0         0         0         0         0         0         0         0         0         0         0         0         0         0         0 
dram[18]:         0         0         0         0         0         0         0         0         0         0         0         0         0         0         0         0 
dram[19]:         0         0         0         0         0         0         0         0         0         0         0         0         0         0         0         0 
dram[20]:         0         0         0         0         0         0         0         0         0         0         0         0         0         0         0         0 
dram[21]:         0         0         0         0         0         0         0         0         0         0         0         0         0         0         0         0 
dram[22]:         0         0         0         0         0         0         0         0         0         0         0         0         0         0         0         0 
dram[23]:         0         0         0         0         0         0         0         0         0         0         0         0         0         0         0         0 
total accesses: 0
min_bank_accesses = 0!
min_chip_accesses = 0!
number of total read accesses:
dram[0]:       472       472       488       488       384       384       384       384       384       384       384       384       480       480       492       488 
dram[1]:       472       464       488       488       384       384       384       384       384       384       384       384       480       480       496       488 
dram[2]:       472       472       496       488       384       384       384       384       384       384       384       384       480       480       488       488 
dram[3]:       472       472       488       488       384       384       384       384       384       384       384       384       480       480       488       488 
dram[4]:       475       472       492       484       384       384       384       384       384       384       384       384       480       476       488       496 
dram[5]:       472       472       492       488       384       384       384       384       384       384       384       384       480       480       496       496 
dram[6]:       480       472       496       488       384       384       384       384       384       384       384       384       480       480       496       492 
dram[7]:       480       472       496       488       384       384       384       384       384       384       384       384       480       480       496       492 
dram[8]:        88        88       108       104         0         0         0         0         0         0         0         0        96        96       104       104 
dram[9]:        88        88       104       104         0         0         0         0         0         0         0         0        96        96       104       104 
dram[10]:        88        88       108       104         0         0         0         0         0         0         0         0        96        96       104       104 
dram[11]:        88        88       108       104         0         0         0         0         0         0         0         0        96        96       104       104 
dram[12]:        88        88       104       100         0         0         0         0         0         0         0         0        96        96       104       104 
dram[13]:        88        88       104       104         0         0         0         0         0         0         0         0        96        96       104       104 
dram[14]:        88        88       104       104         0         0         0         0         0         0         0         0        96        96       104       104 
dram[15]:        88        88       108       108         0         0         0         0         0         0         0         0        96        96       104       104 
dram[16]:        88        88       104       100         0         0         0         0         0         0         0         0        96        96       104        96 
dram[17]:        88        88       104       104         0         0         0         0         0         0         0         0        96        96       104        96 
dram[18]:        88        80       104       104         0         0         0         0         0         0         0         0        96        96       104       104 
dram[19]:        88        84       104        96         0         0         0         0         0         0         0         0        96        96       104       104 
dram[20]:        88        88       104       104         0         0         0         0         0         0         0         0        96        96       104       104 
dram[21]:        88        88       108       100         0         0         0         0         0         0         0         0        96        96       104        96 
dram[22]:        88        88       104       104         0         0         0         0         0         0         0         0        96        96       104       108 
dram[23]:        88        88       100       104         0         0         0         0         0         0         0         0        96        96       104       104 
total dram reads = 68031
min_bank_accesses = 0!
chip skew: 6956/772 = 9.01
number of total write accesses:
dram[0]:       256       264       192       192       192       192       256       260       192       192       200       204       192       192       208       208 
dram[1]:       252       264       192       192       192       184       256       268       200       192       200       196       196       192       200       208 
dram[2]:       260       264       192       192       192       192       256       264       192       192       200       200       200       192       208       196 
dram[3]:       256       264       192       192       192       192       256       268       192       192       200       196       200       192       208       192 
dram[4]:       264       260       192       192       192       192       252       264       192       192       196       208       200       192       200       204 
dram[5]:       272       260       192       192       192       180       256       264       196       200       204       196       200       192       200       204 
dram[6]:       256       264       192       192       192       184       260       264       200       192       196       200       200       192       208       204 
dram[7]:       252       256       192       192       192       192       260       264       192       192       196       200       192       192       216       208 
dram[8]:        20         4         0         0         0         0         8        16         0         0         0         0         0         0        16        24 
dram[9]:        28         0         0         0         0         0         8        16         0         0         0         0         0         4        16        20 
dram[10]:        16         4         0         0         0         0         8        16         0         0         0         0         0         0        20        24 
dram[11]:        20         0         0         0         0         0         8        16         0         0         0         0         4         0        20        24 
dram[12]:        32         0         0         0         0         0         8        12         0         0         0         0         0         0        16        16 
dram[13]:        20        12         0         0         0         0         8        16         0         0         0         0         0         0        16        16 
dram[14]:        20         8         0         0         0         0         8        16         0         0         0         0         4         0        24        12 
dram[15]:        16        12         0         0         0         0         8        16         0         0         0         0         8         0        20        16 
dram[16]:        16        20         0         0         0         0         8        16         0         0         0         0         8         0        20         8 
dram[17]:        28         8         0         0         0         0         8        16         0         0         0         0         8         0        16        12 
dram[18]:        24        12         0         0         0         0         8        12         0         0         0         0         8         0        16        12 
dram[19]:        32         4         0         0         0         0         8         8         0         0         0         0         8         0        16        12 
dram[20]:        32        20         0         0         0         0         8         8         0         0         0         0         4         4         4         8 
dram[21]:        28        12         0         0         0         0         8         8         0         0         0         0         8         0        16         8 
dram[22]:        16        16         0         0         0         0         8         8         0         0         0         0         0         8        24         8 
dram[23]:        24        16         0         0         0         0         8         8         0         0         0         0         8         0        16         8 
total dram writes = 28572
min_bank_accesses = 0!
chip skew: 3400/84 = 40.48
average mf latency per bank:
dram[0]:        994       961      1057      1004       920       924       792       799      1063      1046      1014       975       770       812       939       945
dram[1]:        967       916      1025       988       952       971       811       760       968       989       967       963       778       823       930       901
dram[2]:       1007       980      1126      1044       964       975       822       847      1077      1031       996      1015       776       871       959      1030
dram[3]:       1024       944      1052      1032       960       949       801       760      1014      1025       989      1025       823       868       929       973
dram[4]:       1021      1021      1064      1043       941       961       781       788      1034      1058       988       903       798       906       966       991
dram[5]:        984       982      1063      1049       989       997       807       779      1034      1029      1020      1013       820       871       943       965
dram[6]:        971       935      1021      1027       932       956       766       798      1048      1033       983       952       781       839       938       970
dram[7]:        989       951       964       996       968       937       784       796      1114      1020      1026      1029       850       830       891       904
dram[8]:       2418      3189      2253      2429    none      none       27633     12907    none      none      none      none        1808      1796      2066      1860
dram[9]:       2621      3566      2445      2531    none      none       27151     12936    none      none      none      none        1824      1753      2164      2033
dram[10]:       2787      3185      2314      2410    none      none       27113     13186    none      none      none      none        1831      1769      2038      1749
dram[11]:       2717      3424      2305      2445    none      none       26537     13230    none      none      none      none        1764      1856      2127      1889
dram[12]:       2200      3155      2221      2570    none      none       26175     16883    none      none      none      none        1772      1807      2153      1964
dram[13]:       2457      2704      2340      2503    none      none       25787     12929    none      none      none      none        1749      1868      2204      2184
dram[14]:       2493      2865      2283      2424    none      none       28143     13390    none      none      none      none        1700      1857      2022      2200
dram[15]:       2630      2862      2275      2386    none      none       25428     13120    none      none      none      none        1606      1864      2064      2214
dram[16]:       2632      2318      2383      2737    none      none       19694      9856    none      none      none      none        2124      2324      1423      1861
dram[17]:       2239      2751      2457      2572    none      none       19583     10059    none      none      none      none        2095      2303      1475      1876
dram[18]:       2290      2889      2421      2566    none      none       19259     13100    none      none      none      none        2171      2320      1452      1612
[...]
n_activity=23736 dram_eff=0.4
bk0: 368a 50297i bk1: 392a 50185i bk2: 423a 50229i bk3: 432a 49603i bk4: 416a 50674i bk5: 416a 50138i bk6: 416a 50343i bk7: 416a 50464i bk8: 444a 50008i bk9: 448a 49822i bk10: 432a 49778i bk11: 448a 50258i bk12: 424a 50237i bk13: 424a 50155i bk14: 416a 50283i bk15: 416a 50188i 

------------------------------------------------------------------------

Row_Buffer_Locality = 0.922528
Row_Buffer_Locality_read = 0.939831
Row_Buffer_Locality_write = 0.753980
Bank_Level_Parallism = 3.644074
Bank_Level_Parallism_Col = 3.467203
Bank_Level_Parallism_Ready = 3.232543
write_to_read_ratio_blp_rw_average = 0.183752
GrpLevelPara = 1.829997 

BW Util details:
bwutil = 0.177033 
total_CMD = 53634 
util_bw = 9495 
Wasted_Col = 5501 
Wasted_Row = 2266 
Idle = 36372 

BW Util Bottlenecks: 
RCDc_limit = 3317 
RCDWRc_limit = 143 
WTRc_limit = 171 
RTWc_limit = 150 
CCDLc_limit = 3205 
rwq = 0 
CCDLc_limit_alone = 3192 
WTRc_limit_alone = 160 
RTWc_limit_alone = 148 

Commands details: 
total_CMD = 53634 
n_nop = 43456 
Read = 6731 
Write = 0 
L2_Alloc = 0 
L2_WB = 2764 
n_act = 614 
n_pre = 598 
n_ref = 0 
n_req = 7453 
total_req = 9495 

Dual Bus Interface Util: 
issued_total_row = 1212 
issued_total_col = 9495 
Row_Bus_Util =  0.022598 
CoL_Bus_Util = 0.177033 
Either_Row_CoL_Bus_Util = 0.189768 
Issued_on_Two_Bus_Simul_Util = 0.009863 
issued_two_Eff = 0.051975 
queue_avg = 2.900884 


dram_util_bins: 0 0 0 0 0 0 0 0 0 0
dram_eff_bins: 0 0 0 0 0 0 0 0 0 0
mrqq: max=64 avg=2.90088
Memory Partition 20: 
Cache L2_bank_040:
MSHR contents

Cache L2_bank_041:
MSHR contents

In Dram Latency Queue (total = 0): 
DRAM[20]: 16 bks, busW=16 BL=2 CL=12, tRRD=3 tCCD=1, tRCD=12 tRAS=28 tRP=12 tRC=40
n_cmd=53634 n_nop=43445 n_act=614 n_pre=598 n_ref_event=0 n_req=7487 n_rd=6764 n_rd_L2_A=0 n_write=0 n_wr_bk=2748 bw_util=0.1774
n_activity=23862 dram_eff=0.3986
bk0: 388a 49934i bk1: 376a 50147i bk2: 432a 49869i bk3: 432a 50190i bk4: 416a 50478i bk5: 416a 50468i bk6: 416a 50906i bk7: 416a 50509i bk8: 448a 49828i bk9: 448a 49981i bk10: 448a 49608i bk11: 448a 49866i bk12: 416a 50443i bk13: 432a 50259i bk14: 416a 50101i bk15: 416a 50015i 

------------------------------------------------------------------------

Row_Buffer_Locality = 0.924440
Row_Buffer_Locality_read = 0.940716
Row_Buffer_Locality_write = 0.764192
Bank_Level_Parallism = 3.676491
Bank_Level_Parallism_Col = 3.469178
Bank_Level_Parallism_Ready = 3.292262
write_to_read_ratio_blp_rw_average = 0.191842
GrpLevelPara = 1.846362 

BW Util details:
bwutil = 0.177350 
total_CMD = 53634 
util_bw = 9512 
Wasted_Col = 5441 
Wasted_Row = 2181 
Idle = 36500 

BW Util Bottlenecks: 
RCDc_limit = 3280 
RCDWRc_limit = 183 
WTRc_limit = 160 
RTWc_limit = 231 
CCDLc_limit = 3131 
rwq = 0 
CCDLc_limit_alone = 3123 
WTRc_limit_alone = 154 
RTWc_limit_alone = 229 

Commands details: 
total_CMD = 53634 
n_nop = 43445 
Read = 6764 
Write = 0 
L2_Alloc = 0 
L2_WB = 2748 
n_act = 614 
n_pre = 598 
n_ref = 0 
n_req = 7487 
total_req = 9512 

Dual Bus Interface Util: 
issued_total_row = 1212 
issued_total_col = 9512 
Row_Bus_Util =  0.022598 
CoL_Bus_Util = 0.177350 
Either_Row_CoL_Bus_Util = 0.189973 
Issued_on_Two_Bus_Simul_Util = 0.009975 
issued_two_Eff = 0.052508 
queue_avg = 3.100589 


dram_util_bins: 0 0 0 0 0 0 0 0 0 0
dram_eff_bins: 0 0 0 0 0 0 0 0 0 0
mrqq: max=64 avg=3.10059
Memory Partition 21: 
Cache L2_bank_042:
MSHR contents

Cache L2_bank_043:
MSHR contents

In Dram Latency Queue (total = 0): 
DRAM[21]: 16 bks, busW=16 BL=2 CL=12, tRRD=3 tCCD=1, tRCD=12 tRAS=28 tRP=12 tRC=40
n_cmd=53634 n_nop=43803 n_act=582 n_pre=566 n_ref_event=0 n_req=7449 n_rd=6724 n_rd_L2_A=0 n_write=0 n_wr_bk=2480 bw_util=0.1716
n_activity=23448 dram_eff=0.3925
bk0: 368a 50385i bk1: 368a 50225i bk2: 432a 50276i bk3: 432a 50448i bk4: 416a 50862i bk5: 416a 50794i bk6: 416a 50909i bk7: 416a 50506i bk8: 448a 50297i bk9: 448a 50302i bk10: 444a 50291i bk11: 448a 50101i bk12: 416a 50210i bk13: 424a 50406i bk14: 416a 50287i bk15: 416a 50491i 

------------------------------------------------------------------------

Row_Buffer_Locality = 0.926334
Row_Buffer_Locality_read = 0.941850
Row_Buffer_Locality_write = 0.758065
Bank_Level_Parallism = 3.550569
Bank_Level_Parallism_Col = 3.341614
Bank_Level_Parallism_Ready = 3.108105
write_to_read_ratio_blp_rw_average = 0.173736
GrpLevelPara = 1.817123 

BW Util details:
bwutil = 0.171608 
total_CMD = 53634 
util_bw = 9204 
Wasted_Col = 5230 
Wasted_Row = 2098 
Idle = 37102 

BW Util Bottlenecks: 
RCDc_limit = 3052 
RCDWRc_limit = 165 
WTRc_limit = 220 
RTWc_limit = 154 
CCDLc_limit = 3149 
rwq = 0 
CCDLc_limit_alone = 3133 
WTRc_limit_alone = 205 
RTWc_limit_alone = 153 

Commands details: 
total_CMD = 53634 
n_nop = 43803 
Read = 6724 
Write = 0 
L2_Alloc = 0 
L2_WB = 2480 
n_act = 582 
n_pre = 566 
n_ref = 0 
n_req = 7449 
total_req = 9204 

Dual Bus Interface Util: 
issued_total_row = 1148 
issued_total_col = 9204 
Row_Bus_Util =  0.021404 
CoL_Bus_Util = 0.171608 
Either_Row_CoL_Bus_Util = 0.183298 
Issued_on_Two_Bus_Simul_Util = 0.009714 
issued_two_Eff = 0.052996 
queue_avg = 3.312917 


dram_util_bins: 0 0 0 0 0 0 0 0 0 0
dram_eff_bins: 0 0 0 0 0 0 0 0 0 0
mrqq: max=64 avg=3.31292
Memory Partition 22: 
Cache L2_bank_044:
MSHR contents

Cache L2_bank_045:
MSHR contents

In Dram Latency Queue (total = 0): 
DRAM[22]: 16 bks, busW=16 BL=2 CL=12, tRRD=3 tCCD=1, tRCD=12 tRAS=28 tRP=12 tRC=40
n_cmd=53634 n_nop=43487 n_act=614 n_pre=598 n_ref_event=0 n_req=7456 n_rd=6732 n_rd_L2_A=0 n_write=0 n_wr_bk=2756 bw_util=0.1769
n_activity=23426 dram_eff=0.405
bk0: 372a 50316i bk1: 376a 50646i bk2: 428a 50004i bk3: 432a 50194i bk4: 416a 50677i bk5: 416a 50667i bk6: 416a 50651i bk7: 416a 50756i bk8: 448a 50448i bk9: 448a 50146i bk10: 440a 50175i bk11: 440a 49810i bk12: 420a 50476i bk13: 432a 50185i bk14: 416a 50153i bk15: 416a 50414i 

------------------------------------------------------------------------

Row_Buffer_Locality = 0.922652
Row_Buffer_Locality_read = 0.939245
Row_Buffer_Locality_write = 0.760522
Bank_Level_Parallism = 3.503307
Bank_Level_Parallism_Col = 3.280551
Bank_Level_Parallism_Ready = 3.047323
write_to_read_ratio_blp_rw_average = 0.185882
GrpLevelPara = 1.824766 

BW Util details:
bwutil = 0.176903 
total_CMD = 53634 
util_bw = 9488 
Wasted_Col = 5451 
Wasted_Row = 2144 
Idle = 36551 

BW Util Bottlenecks: 
RCDc_limit = 3301 
RCDWRc_limit = 196 
WTRc_limit = 237 
RTWc_limit = 265 
CCDLc_limit = 3157 
rwq = 0 
CCDLc_limit_alone = 3123 
WTRc_limit_alone = 209 
RTWc_limit_alone = 259 

Commands details: 
total_CMD = 53634 
n_nop = 43487 
Read = 6732 
Write = 0 
L2_Alloc = 0 
L2_WB = 2756 
n_act = 614 
n_pre = 598 
n_ref = 0 
n_req = 7456 
total_req = 9488 

Dual Bus Interface Util: 
issued_total_row = 1212 
issued_total_col = 9488 
Row_Bus_Util =  0.022598 
CoL_Bus_Util = 0.176903 
Either_Row_CoL_Bus_Util = 0.189190 
Issued_on_Two_Bus_Simul_Util = 0.010311 
issued_two_Eff = 0.054499 
queue_avg = 3.109707 


dram_util_bins: 0 0 0 0 0 0 0 0 0 0
dram_eff_bins: 0 0 0 0 0 0 0 0 0 0
mrqq: max=64 avg=3.10971
Memory Partition 23: 
Cache L2_bank_046:
MSHR contents

Cache L2_bank_047:
MSHR contents

In Dram Latency Queue (total = 0): 
DRAM[23]: 16 bks, busW=16 BL=2 CL=12, tRRD=3 tCCD=1, tRCD=12 tRAS=28 tRP=12 tRC=40
n_cmd=53634 n_nop=43483 n_act=591 n_pre=575 n_ref_event=0 n_req=7471 n_rd=6748 n_rd_L2_A=0 n_write=0 n_wr_bk=2768 bw_util=0.1774
n_activity=23324 dram_eff=0.408
bk0: 384a 50280i bk1: 388a 50153i bk2: 424a 50267i bk3: 432a 50313i bk4: 416a 50456i bk5: 416a 50787i bk6: 416a 50170i bk7: 416a 50436i bk8: 448a 49990i bk9: 448a 49998i bk10: 440a 50325i bk11: 440a 50268i bk12: 416a 50493i bk13: 432a 50564i bk14: 416a 50295i bk15: 416a 50067i 

------------------------------------------------------------------------

Row_Buffer_Locality = 0.926479
Row_Buffer_Locality_read = 0.943539
Row_Buffer_Locality_write = 0.760116
Bank_Level_Parallism = 3.612469
Bank_Level_Parallism_Col = 3.388528
Bank_Level_Parallism_Ready = 3.093947
write_to_read_ratio_blp_rw_average = 0.181710
GrpLevelPara = 1.841799 

BW Util details:
bwutil = 0.177425 
total_CMD = 53634 
util_bw = 9516 
Wasted_Col = 5296 
Wasted_Row = 1997 
Idle = 36825 

BW Util Bottlenecks: 
RCDc_limit = 3082 
RCDWRc_limit = 176 
WTRc_limit = 206 
RTWc_limit = 118 
CCDLc_limit = 3250 
rwq = 0 
CCDLc_limit_alone = 3223 
WTRc_limit_alone = 180 
RTWc_limit_alone = 117 

Commands details: 
total_CMD = 53634 
n_nop = 43483 
Read = 6748 
Write = 0 
L2_Alloc = 0 
L2_WB = 2768 
n_act = 591 
n_pre = 575 
n_ref = 0 
n_req = 7471 
total_req = 9516 

Dual Bus Interface Util: 
issued_total_row = 1166 
issued_total_col = 9516 
Row_Bus_Util =  0.021740 
CoL_Bus_Util = 0.177425 
Either_Row_CoL_Bus_Util = 0.189264 
Issued_on_Two_Bus_Simul_Util = 0.009900 
issued_two_Eff = 0.052310 
queue_avg = 3.273129 


dram_util_bins: 0 0 0 0 0 0 0 0 0 0
dram_eff_bins: 0 0 0 0 0 0 0 0 0 0
mrqq: max=64 avg=3.27313

========= L2 cache stats =========
L2_cache_bank[0]: Access = 30725, Miss = 13068, Miss_rate = 0.425, Pending_hits = 426, Reservation_fails = 0
L2_cache_bank[1]: Access = 30512, Miss = 12308, Miss_rate = 0.403, Pending_hits = 268, Reservation_fails = 0
L2_cache_bank[2]: Access = 30475, Miss = 13060, Miss_rate = 0.429, Pending_hits = 385, Reservation_fails = 0
L2_cache_bank[3]: Access = 30599, Miss = 12315, Miss_rate = 0.402, Pending_hits = 273, Reservation_fails = 0
L2_cache_bank[4]: Access = 30766, Miss = 13068, Miss_rate = 0.425, Pending_hits = 447, Reservation_fails = 9
L2_cache_bank[5]: Access = 30497, Miss = 12324, Miss_rate = 0.404, Pending_hits = 277, Reservation_fails = 0
L2_cache_bank[6]: Access = 30549, Miss = 13052, Miss_rate = 0.427, Pending_hits = 409, Reservation_fails = 8
L2_cache_bank[7]: Access = 30604, Miss = 12312, Miss_rate = 0.402, Pending_hits = 312, Reservation_fails = 0
L2_cache_bank[8]: Access = 30746, Miss = 13050, Miss_rate = 0.424, Pending_hits = 416, Reservation_fails = 0
L2_cache_bank[9]: Access = 30492, Miss = 12360, Miss_rate = 0.405, Pending_hits = 279, Reservation_fails = 0
L2_cache_bank[10]: Access = 30505, Miss = 13084, Miss_rate = 0.429, Pending_hits = 415, Reservation_fails = 0
L2_cache_bank[11]: Access = 30542, Miss = 12328, Miss_rate = 0.404, Pending_hits = 278, Reservation_fails = 0
L2_cache_bank[12]: Access = 30756, Miss = 13116, Miss_rate = 0.426, Pending_hits = 441, Reservation_fails = 0
L2_cache_bank[13]: Access = 30558, Miss = 12296, Miss_rate = 0.402, Pending_hits = 286, Reservation_fails = 0
L2_cache_bank[14]: Access = 30532, Miss = 13096, Miss_rate = 0.429, Pending_hits = 424, Reservation_fails = 0
L2_cache_bank[15]: Access = 30643, Miss = 12320, Miss_rate = 0.402, Pending_hits = 303, Reservation_fails = 0
L2_cache_bank[16]: Access = 15231, Miss = 3884, Miss_rate = 0.255, Pending_hits = 84, Reservation_fails = 0
L2_cache_bank[17]: Access = 15388, Miss = 3136, Miss_rate = 0.204, Pending_hits = 26, Reservation_fails = 0
L2_cache_bank[18]: Access = 15385, Miss = 3876, Miss_rate = 0.252, Pending_hits = 85, Reservation_fails = 0
L2_cache_bank[19]: Access = 15363, Miss = 3128, Miss_rate = 0.204, Pending_hits = 15, Reservation_fails = 0
L2_cache_bank[20]: Access = 15203, Miss = 3900, Miss_rate = 0.257, Pending_hits = 76, Reservation_fails = 0
L2_cache_bank[21]: Access = 15403, Miss = 3132, Miss_rate = 0.203, Pending_hits = 40, Reservation_fails = 0
L2_cache_bank[22]: Access = 15424, Miss = 3876, Miss_rate = 0.251, Pending_hits = 108, Reservation_fails = 0
L2_cache_bank[23]: Access = 15364, Miss = 3132, Miss_rate = 0.204, Pending_hits = 27, Reservation_fails = 0
L2_cache_bank[24]: Access = 15217, Miss = 3884, Miss_rate = 0.255, Pending_hits = 89, Reservation_fails = 0
L2_cache_bank[25]: Access = 15364, Miss = 3124, Miss_rate = 0.203, Pending_hits = 29, Reservation_fails = 0
L2_cache_bank[26]: Access = 15403, Miss = 3880, Miss_rate = 0.252, Pending_hits = 110, Reservation_fails = 0
L2_cache_bank[27]: Access = 15346, Miss = 3124, Miss_rate = 0.204, Pending_hits = 22, Reservation_fails = 0
L2_cache_bank[28]: Access = 15256, Miss = 3888, Miss_rate = 0.255, Pending_hits = 100, Reservation_fails = 0
L2_cache_bank[29]: Access = 15390, Miss = 3121, Miss_rate = 0.203, Pending_hits = 26, Reservation_fails = 0
L2_cache_bank[30]: Access = 15408, Miss = 3908, Miss_rate = 0.254, Pending_hits = 103, Reservation_fails = 0
L2_cache_bank[31]: Access = 15351, Miss = 3120, Miss_rate = 0.203, Pending_hits = 31, Reservation_fails = 0
L2_cache_bank[32]: Access = 15288, Miss = 3896, Miss_rate = 0.255, Pending_hits = 112, Reservation_fails = 0
L2_cache_bank[33]: Access = 15228, Miss = 3060, Miss_rate = 0.201, Pending_hits = 32, Reservation_fails = 0
L2_cache_bank[34]: Access = 15343, Miss = 3892, Miss_rate = 0.254, Pending_hits = 93, Reservation_fails = 0
L2_cache_bank[35]: Access = 15131, Miss = 3064, Miss_rate = 0.202, Pending_hits = 29, Reservation_fails = 0
L2_cache_bank[36]: Access = 15301, Miss = 3888, Miss_rate = 0.254, Pending_hits = 95, Reservation_fails = 0
L2_cache_bank[37]: Access = 15186, Miss = 3044, Miss_rate = 0.200, Pending_hits = 28, Reservation_fails = 0
L2_cache_bank[38]: Access = 15329, Miss = 3892, Miss_rate = 0.254, Pending_hits = 77, Reservation_fails = 0
L2_cache_bank[39]: Access = 15333, Miss = 3047, Miss_rate = 0.199, Pending_hits = 37, Reservation_fails = 375
L2_cache_bank[40]: Access = 15329, Miss = 3900, Miss_rate = 0.254, Pending_hits = 109, Reservation_fails = 0
L2_cache_bank[41]: Access = 15191, Miss = 3072, Miss_rate = 0.202, Pending_hits = 38, Reservation_fails = 0
L2_cache_bank[42]: Access = 15324, Miss = 3864, Miss_rate = 0.252, Pending_hits = 86, Reservation_fails = 0
L2_cache_bank[43]: Access = 15058, Miss = 3068, Miss_rate = 0.204, Pending_hits = 22, Reservation_fails = 0
L2_cache_bank[44]: Access = 15261, Miss = 3884, Miss_rate = 0.255, Pending_hits = 94, Reservation_fails = 0
L2_cache_bank[45]: Access = 15200, Miss = 3056, Miss_rate = 0.201, Pending_hits = 34, Reservation_fails = 0
L2_cache_bank[46]: Access = 15351, Miss = 3900, Miss_rate = 0.254, Pending_hits = 90, Reservation_fails = 0
L2_cache_bank[47]: Access = 15120, Miss = 3056, Miss_rate = 0.202, Pending_hits = 16, Reservation_fails = 0
L2_total_cache_accesses = 978970
L2_total_cache_misses = 314853
L2_total_cache_miss_rate = 0.3216
L2_total_cache_pending_hits = 7602
L2_total_cache_reservation_fails = 392
L2_total_cache_breakdown:
	L2_cache_stats_breakdown[GLOBAL_ACC_R][HIT] = 56378
	L2_cache_stats_breakdown[GLOBAL_ACC_R][HIT_RESERVED] = 4526
	L2_cache_stats_breakdown[GLOBAL_ACC_R][MISS] = 59557
	L2_cache_stats_breakdown[GLOBAL_ACC_R][RESERVATION_FAIL] = 383
	L2_cache_stats_breakdown[GLOBAL_ACC_R][SECTOR_MISS] = 178665
	L2_cache_stats_breakdown[GLOBAL_ACC_R][MSHR_HIT] = 4526
	L2_cache_stats_breakdown[LOCAL_ACC_R][HIT] = 0
	L2_cache_stats_breakdown[LOCAL_ACC_R][HIT_RESERVED] = 0
	L2_cache_stats_breakdown[LOCAL_ACC_R][MISS] = 0
	L2_cache_stats_breakdown[LOCAL_ACC_R][RESERVATION_FAIL] = 0
	L2_cache_stats_breakdown[LOCAL_ACC_R][SECTOR_MISS] = 0
	L2_cache_stats_breakdown[LOCAL_ACC_R][MSHR_HIT] = 0
	L2_cache_stats_breakdown[CONST_ACC_R][HIT] = 0
	L2_cache_stats_breakdown[CONST_ACC_R][HIT_RESERVED] = 0
	L2_cache_stats_breakdown[CONST_ACC_R][MISS] = 0
	L2_cache_stats_breakdown[CONST_ACC_R][RESERVATION_FAIL] = 0
	L2_cache_stats_breakdown[CONST_ACC_R][SECTOR_MISS] = 0
	L2_cache_stats_breakdown[CONST_ACC_R][MSHR_HIT] = 0
	L2_cache_stats_breakdown[TEXTURE_ACC_R][HIT] = 0
	L2_cache_stats_breakdown[TEXTURE_ACC_R][HIT_RESERVED] = 0
	L2_cache_stats_breakdown[TEXTURE_ACC_R][MISS] = 0
	L2_cache_stats_breakdown[TEXTURE_ACC_R][RESERVATION_FAIL] = 0
	L2_cache_stats_breakdown[TEXTURE_ACC_R][SECTOR_MISS] = 0
	L2_cache_stats_breakdown[TEXTURE_ACC_R][MSHR_HIT] = 0
	L2_cache_stats_breakdown[GLOBAL_ACC_W][HIT] = 327278
	L2_cache_stats_breakdown[GLOBAL_ACC_W][HIT_RESERVED] = 0
	L2_cache_stats_breakdown[GLOBAL_ACC_W][MISS] = 102
	L2_cache_stats_breakdown[GLOBAL_ACC_W][RESERVATION_FAIL] = 0
	L2_cache_stats_breakdown[GLOBAL_ACC_W][SECTOR_MISS] = 306
	L2_cache_stats_breakdown[GLOBAL_ACC_W][MSHR_HIT] = 0
	L2_cache_stats_breakdown[LOCAL_ACC_W][HIT] = 0
	L2_cache_stats_breakdown[LOCAL_ACC_W][HIT_RESERVED] = 0
	L2_cache_stats_breakdown[LOCAL_ACC_W][MISS] = 0
	L2_cache_stats_breakdown[LOCAL_ACC_W][RESERVATION_FAIL] = 0
	L2_cache_stats_breakdown[LOCAL_ACC_W][SECTOR_MISS] = 0
	L2_cache_stats_breakdown[LOCAL_ACC_W][MSHR_HIT] = 0
	L2_cache_stats_breakdown[L1_WRBK_ACC][HIT] = 0
	L2_cache_stats_breakdown[L1_WRBK_ACC][HIT_RESERVED] = 0
	L2_cache_stats_breakdown[L1_WRBK_ACC][MISS] = 0
	L2_cache_stats_breakdown[L1_WRBK_ACC][RESERVATION_FAIL] = 0
	L2_cache_stats_breakdown[L1_WRBK_ACC][SECTOR_MISS] = 0
	L2_cache_stats_breakdown[L1_WRBK_ACC][MSHR_HIT] = 0
	L2_cache_stats_breakdown[L2_WRBK_ACC][HIT] = 0
	L2_cache_stats_breakdown[L2_WRBK_ACC][HIT_RESERVED] = 0
	L2_cache_stats_breakdown[L2_WRBK_ACC][MISS] = 0
	L2_cache_stats_breakdown[L2_WRBK_ACC][RESERVATION_FAIL] = 0
	L2_cache_stats_breakdown[L2_WRBK_ACC][SECTOR_MISS] = 0
	L2_cache_stats_breakdown[L2_WRBK_ACC][MSHR_HIT] = 0
	L2_cache_stats_breakdown[INST_ACC_R][HIT] = 0
	L2_cache_stats_breakdown[INST_ACC_R][HIT_RESERVED] = 0
	L2_cache_stats_breakdown[INST_ACC_R][MISS] = 0
	L2_cache_stats_breakdown[INST_ACC_R][RESERVATION_FAIL] = 0
	L2_cache_stats_breakdown[INST_ACC_R][SECTOR_MISS] = 0
	L2_cache_stats_breakdown[INST_ACC_R][MSHR_HIT] = 0
	L2_cache_stats_breakdown[L1_WR_ALLOC_R][HIT] = 0
	L2_cache_stats_breakdown[L1_WR_ALLOC_R][HIT_RESERVED] = 0
	L2_cache_stats_breakdown[L1_WR_ALLOC_R][MISS] = 0
	L2_cache_stats_breakdown[L1_WR_ALLOC_R][RESERVATION_FAIL] = 0
	L2_cache_stats_breakdown[L1_WR_ALLOC_R][SECTOR_MISS] = 0
	L2_cache_stats_breakdown[L1_WR_ALLOC_R][MSHR_HIT] = 0
	L2_cache_stats_breakdown[L2_WR_ALLOC_R][HIT] = 0
	L2_cache_stats_breakdown[L2_WR_ALLOC_R][HIT_RESERVED] = 0
	L2_cache_stats_breakdown[L2_WR_ALLOC_R][MISS] = 0
	L2_cache_stats_breakdown[L2_WR_ALLOC_R][RESERVATION_FAIL] = 0
	L2_cache_stats_breakdown[L2_WR_ALLOC_R][SECTOR_MISS] = 0
	L2_cache_stats_breakdown[L2_WR_ALLOC_R][MSHR_HIT] = 0
	L2_cache_stats_breakdown[GLOBAL_ACC_R][TOTAL_ACCESS] = 299126
	L2_cache_stats_breakdown[GLOBAL_ACC_W][TOTAL_ACCESS] = 327686
L2_total_cache_reservation_fail_breakdown:
	L2_cache_stats_fail_breakdown[GLOBAL_ACC_R][MSHR_ENRTY_FAIL] = 8
	L2_cache_stats_fail_breakdown[GLOBAL_ACC_R][MSHR_MERGE_ENRTY_FAIL] = 375
L2_cache_data_port_util = 0.181
L2_cache_fill_port_util = 0.084

icnt_total_pkts_mem_to_simt=978970
icnt_total_pkts_simt_to_mem=978970
LD_mem_lat_dist  0 0 0 0 0 0 0 0 0 0 0 0 0 0 0 0 0 0 0 0 0 0 0 0 0 0 0
ST_mem_lat_dist  0 0 0 0 0 0 0 0 0 0 0 0 0 0 0 0 0 0 0 0 0 0 0 0 0 0 0
----------------------------Interconnect-DETAILS--------------------------------
Req_Network_injected_packets_num = 978970
Req_Network_cycles = 75719
Req_Network_injected_packets_per_cycle =      12.9290 
Req_Network_conflicts_per_cycle =      17.7298
Req_Network_conflicts_per_cycle_util =      18.5960
Req_Bank_Level_Parallism =      13.5606
Req_Network_in_buffer_full_per_cycle =       0.3477
Req_Network_in_buffer_avg_util =     118.3398
Req_Network_out_buffer_full_per_cycle =       0.6295
Req_Network_out_buffer_avg_util =      52.5221

Reply_Network_injected_packets_num = 978970
Reply_Network_cycles = 75719
Reply_Network_injected_packets_per_cycle =       12.9290
Reply_Network_conflicts_per_cycle =       11.4659
Reply_Network_conflicts_per_cycle_util =      12.0174
Reply_Bank_Level_Parallism =      13.5509
Reply_Network_in_buffer_full_per_cycle =       0.0000
Reply_Network_in_buffer_avg_util =       7.3810
Reply_Network_out_buffer_full_per_cycle =       0.0000
Reply_Network_out_buffer_avg_util =       0.3232
----------------------------END-of-Interconnect-DETAILS-------------------------


gpgpu_simulation_time = 0 days, 0 hrs, 4 min, 30 sec (270 sec)
gpgpu_simulation_rate = 598320 (inst/sec)
gpgpu_simulation_rate = 280 (cycle/sec)
gpgpu_silicon_slowdown = 4285714x
Training done
GPGPU-Sim: *** exit detected ***
