self exe links to: /workspace/gpgpu-sim_simulations/benchmarks/src/cuda/bin/release/CORR
self exe links to: /workspace/gpgpu-sim_simulations/benchmarks/src/cuda/bin/release/CORR
10.1


        *** GPGPU-Sim Simulator Version 4.2.0  [build gpgpu-sim_git-commit-a4ce3fe_modified_0.0] ***


GPGPU-Sim PTX: simulation mode 0 (can change with PTX_SIM_MODE_FUNC environment variable:
               1=functional simulation only, 0=detailed performance simulator)
GPGPU-Sim PTX: overriding embedded ptx with ptx file (PTX_SIM_USE_PTX_FILE is set)
GPGPU-Sim: Configuration options:

-save_embedded_ptx                      0 # saves ptx files embedded in binary as <n>.ptx
-keep                                   0 # keep intermediate files created by GPGPU-Sim when interfacing with external programs
-gpgpu_ptx_save_converted_ptxplus                    0 # Saved converted ptxplus to a file
-gpgpu_occupancy_sm_number                   70 # The SM number to pass to ptxas when getting register usage for computing GPU occupancy. This parameter is required in the config.
-ptx_opcode_latency_int      4,13,4,5,145,32 # Opcode latencies for integers <ADD,MAX,MUL,MAD,DIV,SHFL>Default 1,1,19,25,145,32
-ptx_opcode_latency_fp          4,13,4,5,39 # Opcode latencies for single precision floating points <ADD,MAX,MUL,MAD,DIV>Default 1,1,1,1,30
-ptx_opcode_latency_dp         8,19,8,8,330 # Opcode latencies for double precision floating points <ADD,MAX,MUL,MAD,DIV>Default 8,8,8,8,335
-ptx_opcode_latency_sfu                  100 # Opcode latencies for SFU instructionsDefault 8
-ptx_opcode_latency_tesnor                   64 # Opcode latencies for Tensor instructionsDefault 64
-ptx_opcode_initiation_int          2,2,2,2,8,4 # Opcode initiation intervals for integers <ADD,MAX,MUL,MAD,DIV,SHFL>Default 1,1,4,4,32,4
-ptx_opcode_initiation_fp            2,2,2,2,4 # Opcode initiation intervals for single precision floating points <ADD,MAX,MUL,MAD,DIV>Default 1,1,1,1,5
-ptx_opcode_initiation_dp          4,4,4,4,130 # Opcode initiation intervals for double precision floating points <ADD,MAX,MUL,MAD,DIV>Default 8,8,8,8,130
-ptx_opcode_initiation_sfu                    8 # Opcode initiation intervals for sfu instructionsDefault 8
-ptx_opcode_initiation_tensor                   64 # Opcode initiation intervals for tensor instructionsDefault 64
-cdp_latency         7200,8000,100,12000,1600 # CDP API latency <cudaStreamCreateWithFlags, cudaGetParameterBufferV2_init_perWarp, cudaGetParameterBufferV2_perKernel, cudaLaunchDeviceV2_init_perWarp, cudaLaunchDevicV2_perKernel>Default 7200,8000,100,12000,1600
-network_mode                           2 # Interconnection network mode
-inter_config_file                   mesh # Interconnection network config file
-icnt_in_buffer_limit                  512 # in_buffer_limit
-icnt_out_buffer_limit                  512 # out_buffer_limit
-icnt_subnets                           2 # subnets
-icnt_arbiter_algo                      1 # arbiter_algo
-icnt_verbose                           0 # inct_verbose
-icnt_grant_cycles                      1 # grant_cycles
-gpgpu_ptx_use_cuobjdump                    1 # Use cuobjdump to extract ptx and sass from binaries
-gpgpu_experimental_lib_support                    0 # Try to extract code from cuda libraries [Broken because of unknown cudaGetExportTable]
-checkpoint_option                      0 #  checkpointing flag (0 = no checkpoint)
-checkpoint_kernel                      1 #  checkpointing during execution of which kernel (1- 1st kernel)
-checkpoint_CTA                         0 #  checkpointing after # of CTA (< less than total CTA)
-resume_option                          0 #  resume flag (0 = no resume)
-resume_kernel                          0 #  Resume from which kernel (1= 1st kernel)
-resume_CTA                             0 #  resume from which CTA 
-checkpoint_CTA_t                       0 #  resume from which CTA 
-checkpoint_insn_Y                      0 #  resume from which CTA 
-gpgpu_ptx_convert_to_ptxplus                    0 # Convert SASS (native ISA) to ptxplus and run ptxplus
-gpgpu_ptx_force_max_capability                   70 # Force maximum compute capability
-gpgpu_ptx_inst_debug_to_file                    0 # Dump executed instructions' debug information to file
-gpgpu_ptx_inst_debug_file       inst_debug.txt # Executed instructions' debug output file
-gpgpu_ptx_inst_debug_thread_uid                    1 # Thread UID for executed instructions' debug output
-gpgpu_simd_model                       1 # 1 = post-dominator
-gpgpu_shader_core_pipeline              2048:32 # shader core pipeline config, i.e., {<nthread>:<warpsize>}
-gpgpu_tex_cache:l1  N:4:128:256,L:R:m:N:L,T:512:8,128:2 # per-shader L1 texture cache  (READ-ONLY) config  {<nsets>:<bsize>:<assoc>,<rep>:<wr>:<alloc>:<wr_alloc>,<mshr>:<N>:<merge>,<mq>:<rf>}
-gpgpu_const_cache:l1 N:128:64:8,L:R:f:N:L,S:2:64,4 # per-shader L1 constant memory cache  (READ-ONLY) config  {<nsets>:<bsize>:<assoc>,<rep>:<wr>:<alloc>:<wr_alloc>,<mshr>:<N>:<merge>,<mq>} 
-gpgpu_cache:il1     N:64:128:16,L:R:f:N:L,S:2:48,4 # shader L1 instruction cache config  {<nsets>:<bsize>:<assoc>,<rep>:<wr>:<alloc>:<wr_alloc>,<mshr>:<N>:<merge>,<mq>} 
-gpgpu_cache:dl1     S:4:128:64,L:T:m:L:L,A:512:8,16:0,32 # per-shader L1 data cache config  {<nsets>:<bsize>:<assoc>,<rep>:<wr>:<alloc>:<wr_alloc>,<mshr>:<N>:<merge>,<mq> | none}
-gpgpu_l1_cache_write_ratio                   25 # L1D write ratio
-gpgpu_l1_banks                         4 # The number of L1 cache banks
-gpgpu_l1_banks_byte_interleaving                   32 # l1 banks byte interleaving granularity
-gpgpu_l1_banks_hashing_function                    0 # l1 banks hashing function
-gpgpu_l1_latency                      20 # L1 Hit Latency
-gpgpu_smem_latency                    20 # smem Latency
-gpgpu_cache:dl1PrefL1                 none # per-shader L1 data cache config  {<nsets>:<bsize>:<assoc>,<rep>:<wr>:<alloc>:<wr_alloc>,<mshr>:<N>:<merge>,<mq> | none}
-gpgpu_cache:dl1PrefShared                 none # per-shader L1 data cache config  {<nsets>:<bsize>:<assoc>,<rep>:<wr>:<alloc>:<wr_alloc>,<mshr>:<N>:<merge>,<mq> | none}
-gpgpu_gmem_skip_L1D                    0 # global memory access skip L1D cache (implements -Xptxas -dlcm=cg, default=no skip)
-gpgpu_perfect_mem                      0 # enable perfect memory mode (no cache miss)
-n_regfile_gating_group                    4 # group of lanes that should be read/written together)
-gpgpu_clock_gated_reg_file                    0 # enable clock gated reg file for power calculations
-gpgpu_clock_gated_lanes                    0 # enable clock gated lanes for power calculations
-gpgpu_shader_registers                65536 # Number of registers per shader core. Limits number of concurrent CTAs. (default 8192)
-gpgpu_registers_per_block                65536 # Maximum number of registers per CTA. (default 8192)
-gpgpu_ignore_resources_limitation                    0 # gpgpu_ignore_resources_limitation (default 0)
-gpgpu_shader_cta                      32 # Maximum number of concurrent CTAs in shader (default 32)
-gpgpu_num_cta_barriers                   16 # Maximum number of named barriers per CTA (default 16)
-gpgpu_n_clusters                      40 # number of processing clusters
-gpgpu_n_cores_per_cluster                    2 # number of simd cores per cluster
-gpgpu_n_cluster_ejection_buffer_size                   32 # number of packets in ejection buffer
-gpgpu_n_ldst_response_buffer_size                    2 # number of response packets in ld/st unit ejection buffer
-gpgpu_shmem_per_block                65536 # Size of shared memory per thread block or CTA (default 48kB)
-gpgpu_shmem_size                   98304 # Size of shared memory per shader core (default 16kB)
-gpgpu_shmem_option       0,8,16,32,64,96 # Option list of shared memory sizes
-gpgpu_unified_l1d_size                  128 # Size of unified data cache(L1D + shared memory) in KB
-gpgpu_adaptive_cache_config                    1 # adaptive_cache_config
-gpgpu_shmem_sizeDefault                98304 # Size of shared memory per shader core (default 16kB)
-gpgpu_shmem_size_PrefL1                16384 # Size of shared memory per shader core (default 16kB)
-gpgpu_shmem_size_PrefShared                16384 # Size of shared memory per shader core (default 16kB)
-gpgpu_shmem_num_banks                   32 # Number of banks in the shared memory in each shader core (default 16)
-gpgpu_shmem_limited_broadcast                    0 # Limit shared memory to do one broadcast per cycle (default on)
-gpgpu_shmem_warp_parts                    1 # Number of portions a warp is divided into for shared memory bank conflict check 
-gpgpu_mem_unit_ports                    1 # The number of memory transactions allowed per core cycle
-gpgpu_shmem_warp_parts                    1 # Number of portions a warp is divided into for shared memory bank conflict check 
-gpgpu_warpdistro_shader                   -1 # Specify which shader core to collect the warp size distribution from
-gpgpu_warp_issue_shader                    0 # Specify which shader core to collect the warp issue distribution from
-gpgpu_local_mem_map                    1 # Mapping from local memory space address to simulated GPU physical address space (default = enabled)
-gpgpu_num_reg_banks                    8 # Number of register banks (default = 8)
-gpgpu_reg_bank_use_warp_id                    0 # Use warp ID in mapping registers to banks (default = off)
-gpgpu_sub_core_model                    1 # Sub Core Volta/Pascal model (default = off)
-gpgpu_enable_specialized_operand_collector                    0 # enable_specialized_operand_collector
-gpgpu_operand_collector_num_units_sp                    4 # number of collector units (default = 4)
-gpgpu_operand_collector_num_units_dp                    0 # number of collector units (default = 0)
-gpgpu_operand_collector_num_units_sfu                    4 # number of collector units (default = 4)
-gpgpu_operand_collector_num_units_int                    0 # number of collector units (default = 0)
-gpgpu_operand_collector_num_units_tensor_core                    4 # number of collector units (default = 4)
-gpgpu_operand_collector_num_units_mem                    2 # number of collector units (default = 2)
-gpgpu_operand_collector_num_units_gen                    8 # number of collector units (default = 0)
-gpgpu_operand_collector_num_in_ports_sp                    1 # number of collector unit in ports (default = 1)
-gpgpu_operand_collector_num_in_ports_dp                    0 # number of collector unit in ports (default = 0)
-gpgpu_operand_collector_num_in_ports_sfu                    1 # number of collector unit in ports (default = 1)
-gpgpu_operand_collector_num_in_ports_int                    0 # number of collector unit in ports (default = 0)
-gpgpu_operand_collector_num_in_ports_tensor_core                    1 # number of collector unit in ports (default = 1)
-gpgpu_operand_collector_num_in_ports_mem                    1 # number of collector unit in ports (default = 1)
-gpgpu_operand_collector_num_in_ports_gen                    8 # number of collector unit in ports (default = 0)
-gpgpu_operand_collector_num_out_ports_sp                    1 # number of collector unit in ports (default = 1)
-gpgpu_operand_collector_num_out_ports_dp                    0 # number of collector unit in ports (default = 0)
-gpgpu_operand_collector_num_out_ports_sfu                    1 # number of collector unit in ports (default = 1)
-gpgpu_operand_collector_num_out_ports_int                    0 # number of collector unit in ports (default = 0)
-gpgpu_operand_collector_num_out_ports_tensor_core                    1 # number of collector unit in ports (default = 1)
-gpgpu_operand_collector_num_out_ports_mem                    1 # number of collector unit in ports (default = 1)
-gpgpu_operand_collector_num_out_ports_gen                    8 # number of collector unit in ports (default = 0)
-gpgpu_coalesce_arch                   60 # Coalescing arch (GT200 = 13, Fermi = 20)
-gpgpu_num_sched_per_core                    4 # Number of warp schedulers per core
-gpgpu_max_insn_issue_per_warp                    1 # Max number of instructions that can be issued per warp in one cycle by scheduler (either 1 or 2)
-gpgpu_dual_issue_diff_exec_units                    1 # should dual issue use two different execution unit resources (Default = 1)
-gpgpu_simt_core_sim_order                    1 # Select the simulation order of cores in a cluster (0=Fix, 1=Round-Robin)
-gpgpu_pipeline_widths 4,4,4,4,4,4,4,4,4,4,8,4,4 # Pipeline widths ID_OC_SP,ID_OC_DP,ID_OC_INT,ID_OC_SFU,ID_OC_MEM,OC_EX_SP,OC_EX_DP,OC_EX_INT,OC_EX_SFU,OC_EX_MEM,EX_WB,ID_OC_TENSOR_CORE,OC_EX_TENSOR_CORE
-gpgpu_tensor_core_avail                    1 # Tensor Core Available (default=0)
-gpgpu_num_sp_units                     4 # Number of SP units (default=1)
-gpgpu_num_dp_units                     4 # Number of DP units (default=0)
-gpgpu_num_int_units                    4 # Number of INT units (default=0)
-gpgpu_num_sfu_units                    4 # Number of SF units (default=1)
-gpgpu_num_tensor_core_units                    4 # Number of tensor_core units (default=1)
-gpgpu_num_mem_units                    1 # Number if ldst units (default=1) WARNING: not hooked up to anything
-gpgpu_scheduler                      lrr # Scheduler configuration: < lrr | gto | two_level_active > If two_level_active:<num_active_warps>:<inner_prioritization>:<outer_prioritization>For complete list of prioritization values see shader.h enum scheduler_prioritization_typeDefault: gto
-gpgpu_concurrent_kernel_sm                    0 # Support concurrent kernels on a SM (default = disabled)
-gpgpu_perfect_inst_const_cache                    1 # perfect inst and const cache mode, so all inst and const hits in the cache(default = disabled)
-gpgpu_inst_fetch_throughput                    4 # the number of fetched intruction per warp each cycle
-gpgpu_reg_file_port_throughput                    2 # the number ports of the register file
-specialized_unit_1         0,4,4,4,4,BRA # specialized unit config {<enabled>,<num_units>:<latency>:<initiation>,<ID_OC_SPEC>:<OC_EX_SPEC>,<NAME>}
-specialized_unit_2         0,4,4,4,4,BRA # specialized unit config {<enabled>,<num_units>:<latency>:<initiation>,<ID_OC_SPEC>:<OC_EX_SPEC>,<NAME>}
-specialized_unit_3         0,4,4,4,4,BRA # specialized unit config {<enabled>,<num_units>:<latency>:<initiation>,<ID_OC_SPEC>:<OC_EX_SPEC>,<NAME>}
-specialized_unit_4         0,4,4,4,4,BRA # specialized unit config {<enabled>,<num_units>:<latency>:<initiation>,<ID_OC_SPEC>:<OC_EX_SPEC>,<NAME>}
-specialized_unit_5         0,4,4,4,4,BRA # specialized unit config {<enabled>,<num_units>:<latency>:<initiation>,<ID_OC_SPEC>:<OC_EX_SPEC>,<NAME>}
-specialized_unit_6         0,4,4,4,4,BRA # specialized unit config {<enabled>,<num_units>:<latency>:<initiation>,<ID_OC_SPEC>:<OC_EX_SPEC>,<NAME>}
-specialized_unit_7         0,4,4,4,4,BRA # specialized unit config {<enabled>,<num_units>:<latency>:<initiation>,<ID_OC_SPEC>:<OC_EX_SPEC>,<NAME>}
-specialized_unit_8         0,4,4,4,4,BRA # specialized unit config {<enabled>,<num_units>:<latency>:<initiation>,<ID_OC_SPEC>:<OC_EX_SPEC>,<NAME>}
-gpgpu_perf_sim_memcpy                    1 # Fill the L2 cache on memcpy
-gpgpu_simple_dram_model                    0 # simple_dram_model with fixed latency and BW
-gpgpu_dram_scheduler                    1 # 0 = fifo, 1 = FR-FCFS (defaul)
-gpgpu_dram_partition_queues          64:64:64:64 # i2$:$2d:d2$:$2i
-l2_ideal                               0 # Use a ideal L2 cache that always hit
-gpgpu_cache:dl2     S:32:128:24,L:B:m:L:P,A:192:4,32:0,32 # unified banked L2 data cache config  {<nsets>:<bsize>:<assoc>,<rep>:<wr>:<alloc>:<wr_alloc>,<mshr>:<N>:<merge>,<mq>}
-gpgpu_cache:dl2_texture_only                    0 # L2 cache used for texture only
-gpgpu_n_mem                           24 # number of memory modules (e.g. memory controllers) in gpu
-gpgpu_n_sub_partition_per_mchannel                    2 # number of memory subpartition in each memory module
-gpgpu_n_mem_per_ctrlr                    1 # number of memory chips per memory controller
-gpgpu_memlatency_stat                   14 # track and display latency statistics 0x2 enables MC, 0x4 enables queue logs
-gpgpu_frfcfs_dram_sched_queue_size                   64 # 0 = unlimited (default); # entries per chip
-gpgpu_dram_return_queue_size                  192 # 0 = unlimited (default); # entries per chip
-gpgpu_dram_buswidth                   16 # default = 4 bytes (8 bytes per cycle at DDR)
-gpgpu_dram_burst_length                    2 # Burst length of each DRAM request (default = 4 data bus cycle)
-dram_data_command_freq_ratio                    2 # Frequency ratio between DRAM data bus and command bus (default = 2 times, i.e. DDR)
-gpgpu_dram_timing_opt nbk=16:CCD=1:RRD=3:RCD=12:RAS=28:RP=12:RC=40: CL=12:WL=2:CDLR=3:WR=10:nbkgrp=4:CCDL=2:RTPL=3 # DRAM timing parameters = {nbk:tCCD:tRRD:tRCD:tRAS:tRP:tRC:CL:WL:tCDLR:tWR:nbkgrp:tCCDL:tRTPL}
-gpgpu_l2_rop_latency                  160 # ROP queue latency (default 85)
-dram_latency                         100 # DRAM latency (default 30)
-dram_dual_bus_interface                  257 # dual_bus_interface (default = 0) 
-dram_bnk_indexing_policy                    1 # dram_bnk_indexing_policy (0 = normal indexing, 1 = Xoring with the higher bits) (Default = 0)
-dram_bnkgrp_indexing_policy                    1 # dram_bnkgrp_indexing_policy (0 = take higher bits, 1 = take lower bits) (Default = 0)
-dram_seperate_write_queue_enable                    1 # Seperate_Write_Queue_Enable
-dram_write_queue_size           128:108:32 # Write_Queue_Size
-dram_elimnate_rw_turnaround                    0 # elimnate_rw_turnaround i.e set tWTR and tRTW = 0
-icnt_flit_size                        40 # icnt_flit_size
-SST_mode                               0 # SST mode
-gpgpu_mem_addr_mapping dramid@8;00000000.00000000.00000000.00000000.0000RRRR.RRRRRRRR.RBBBCCCB.CCCSSSSS # mapping memory address to dram model {dramid@<start bit>;<memory address map>}
-gpgpu_mem_addr_test                    0 # run sweep test to check address mapping for aliased address
-gpgpu_mem_address_mask                    1 # 0 = old addressing mask, 1 = new addressing mask, 2 = new add. mask + flipped bank sel and chip sel bits
-gpgpu_memory_partition_indexing                    2 # 0 = no indexing, 1 = bitwise xoring, 2 = IPoly, 3 = custom indexing
-accelwattch_xml_file accelwattch_sass_sim.xml # AccelWattch XML file
-power_simulation_enabled                    0 # Turn on power simulator (1=On, 0=Off)
-power_per_cycle_dump                    0 # Dump detailed power output each cycle
-hw_perf_file_name            hw_perf.csv # Hardware Performance Statistics file
-hw_perf_bench_name                       # Kernel Name in Hardware Performance Statistics file
-power_simulation_mode                    0 # Switch performance counter input for power simulation (0=Sim, 1=HW, 2=HW-Sim Hybrid)
-dvfs_enabled                           0 # Turn on DVFS for power model
-aggregate_power_stats                    0 # Accumulate power across all kernels
-accelwattch_hybrid_perfsim_L1_RH                    0 # Get L1 Read Hits for Accelwattch-Hybrid from Accel-Sim
-accelwattch_hybrid_perfsim_L1_RM                    0 # Get L1 Read Misses for Accelwattch-Hybrid from Accel-Sim
-accelwattch_hybrid_perfsim_L1_WH                    0 # Get L1 Write Hits for Accelwattch-Hybrid from Accel-Sim
-accelwattch_hybrid_perfsim_L1_WM                    0 # Get L1 Write Misses for Accelwattch-Hybrid from Accel-Sim
-accelwattch_hybrid_perfsim_L2_RH                    0 # Get L2 Read Hits for Accelwattch-Hybrid from Accel-Sim
-accelwattch_hybrid_perfsim_L2_RM                    0 # Get L2 Read Misses for Accelwattch-Hybrid from Accel-Sim
-accelwattch_hybrid_perfsim_L2_WH                    0 # Get L2 Write Hits for Accelwattch-Hybrid from Accel-Sim
-accelwattch_hybrid_perfsim_L2_WM                    0 # Get L2 Write Misses for Accelwattch-Hybrid from Accel-Sim
-accelwattch_hybrid_perfsim_CC_ACC                    0 # Get Constant Cache Acesses for Accelwattch-Hybrid from Accel-Sim
-accelwattch_hybrid_perfsim_SHARED_ACC                    0 # Get Shared Memory Acesses for Accelwattch-Hybrid from Accel-Sim
-accelwattch_hybrid_perfsim_DRAM_RD                    0 # Get DRAM Reads for Accelwattch-Hybrid from Accel-Sim
-accelwattch_hybrid_perfsim_DRAM_WR                    0 # Get DRAM Writes for Accelwattch-Hybrid from Accel-Sim
-accelwattch_hybrid_perfsim_NOC                    0 # Get Interconnect Acesses for Accelwattch-Hybrid from Accel-Sim
-accelwattch_hybrid_perfsim_PIPE_DUTY                    0 # Get Pipeline Duty Cycle Acesses for Accelwattch-Hybrid from Accel-Sim
-accelwattch_hybrid_perfsim_NUM_SM_IDLE                    0 # Get Number of Idle SMs for Accelwattch-Hybrid from Accel-Sim
-accelwattch_hybrid_perfsim_CYCLES                    0 # Get Executed Cycles for Accelwattch-Hybrid from Accel-Sim
-accelwattch_hybrid_perfsim_VOLTAGE                    0 # Get Chip Voltage for Accelwattch-Hybrid from Accel-Sim
-power_trace_enabled                    0 # produce a file for the power trace (1=On, 0=Off)
-power_trace_zlevel                     6 # Compression level of the power trace output log (0=no comp, 9=highest)
-steady_power_levels_enabled                    0 # produce a file for the steady power levels (1=On, 0=Off)
-steady_state_definition                  8:4 # allowed deviation:number of samples
-gpgpu_max_cycle                        0 # terminates gpu simulation early (0 = no limit)
-gpgpu_max_insn                         0 # terminates gpu simulation early (0 = no limit)
-gpgpu_max_cta                          0 # terminates gpu simulation early (0 = no limit)
-gpgpu_max_completed_cta                    0 # terminates gpu simulation early (0 = no limit)
-gpgpu_runtime_stat                   500 # display runtime statistics such as dram utilization {<freq>:<flag>}
-liveness_message_freq                    1 # Minimum number of seconds between simulation liveness messages (0 = always print)
-gpgpu_compute_capability_major                    7 # Major compute capability version number
-gpgpu_compute_capability_minor                    0 # Minor compute capability version number
-gpgpu_flush_l1_cache                    1 # Flush L1 cache at the end of each kernel call
-gpgpu_flush_l2_cache                    0 # Flush L2 cache at the end of each kernel call
-gpgpu_deadlock_detect                    1 # Stop the simulation at deadlock (1=on (default), 0=off)
-gpgpu_ptx_instruction_classification                    0 # if enabled will classify ptx instruction types per kernel (Max 255 kernels now)
-gpgpu_ptx_sim_mode                     0 # Select between Performance (default) or Functional simulation (1)
-gpgpu_clock_domains 1200.0:1200.0:1200.0:850.0 # Clock Domain Frequencies in MhZ {<Core Clock>:<ICNT Clock>:<L2 Clock>:<DRAM Clock>}
-gpgpu_max_concurrent_kernel                  128 # maximum kernels that can run concurrently on GPU, set this value according to max resident grids for your compute capability
-gpgpu_cflog_interval                    0 # Interval between each snapshot in control flow logger
-visualizer_enabled                     0 # Turn on visualizer output (1=On, 0=Off)
-visualizer_outputfile                 NULL # Specifies the output log file for visualizer
-visualizer_zlevel                      6 # Compression level of the visualizer output log (0=no comp, 9=highest)
-gpgpu_stack_size_limit                 1024 # GPU thread stack size
-gpgpu_heap_size_limit              8388608 # GPU malloc heap size 
-gpgpu_runtime_sync_depth_limit                    2 # GPU device runtime synchronize depth
-gpgpu_runtime_pending_launch_count_limit                 2048 # GPU device runtime pending launch count
-trace_enabled                          0 # Turn on traces
-trace_components                    none # comma seperated list of traces to enable. Complete list found in trace_streams.tup. Default none
-trace_sampling_core                    0 # The core which is printed using CORE_DPRINTF. Default 0
-trace_sampling_memory_partition                   -1 # The memory partition which is printed using MEMPART_DPRINTF. Default -1 (i.e. all)
-enable_ptx_file_line_stats                    1 # Turn on PTX source line statistic profiling. (1 = On)
-ptx_line_stats_filename gpgpu_inst_stats.txt # Output file for PTX source line statistics.
-gpgpu_kernel_launch_latency                    0 # Kernel launch latency in cycles. Default: 0
-gpgpu_cdp_enabled                      0 # Turn on CDP
-gpgpu_TB_launch_latency                    0 # thread block launch latency in cycles. Default: 0
DRAM Timing Options:
nbk                                    16 # number of banks
CCD                                     1 # column to column delay
RRD                              730e85e86ad96a7909986c487f57fc13  /workspace/gpgpu-sim_simulations/benchmarks/src/cuda/bin/release/CORR
Extracting PTX file and ptxas options    1: CORR.1.sm_30.ptx -arch=sm_30
       3 # minimal delay between activation of rows in different banks
RCD                                    12 # row to column delay
RAS                                    28 # time needed to activate row
RP                                     12 # time needed to precharge (deactivate) row
RC                                     40 # row cycle time
CDLR                                    3 # switching from write to read (changes tWTR)
WR                                     10 # last data-in to row precharge
CL                                     12 # CAS latency
WL                                      2 # Write latency
nbkgrp                                  4 # number of bank groups
CCDL                                    2 # column to column delay between accesses to different bank groups
RTPL                                    3 # read to precharge delay between accesses to different bank groups
Total number of memory sub partition = 48
addr_dec_mask[CHIP]  = 0000000000000000 	high:64 low:0
addr_dec_mask[BK]    = 0000000000007100 	high:15 low:8
addr_dec_mask[ROW]   = 000000000fff8000 	high:28 low:15
addr_dec_mask[COL]   = 0000000000000eff 	high:12 low:0
addr_dec_mask[BURST] = 000000000000001f 	high:5 low:0
sub_partition_id_mask = 0000000000000100
GPGPU-Sim uArch: clock freqs: 1200000000.000000:1200000000.000000:1200000000.000000:850000000.000000
GPGPU-Sim uArch: clock periods: 0.00000000083333333333:0.00000000083333333333:0.00000000083333333333:0.00000000117647058824
*** Initializing Memory Statistics ***
GPGPU-Sim uArch: performance model initialization complete.
GPGPU-Sim PTX: __cudaRegisterFatBinary, fat_cubin_handle = 1, filename=default
self exe links to: /workspace/gpgpu-sim_simulations/benchmarks/src/cuda/bin/release/CORR
Running md5sum using "md5sum /workspace/gpgpu-sim_simulations/benchmarks/src/cuda/bin/release/CORR "
self exe links to: /workspace/gpgpu-sim_simulations/benchmarks/src/cuda/bin/release/CORR
Extracting specific PTX file named CORR.1.sm_30.ptx 
GPGPU-Sim PTX: __cudaRegisterFunction _Z11corr_kernelPfS_ : hostFun 0x0x58bf06002385, fat_cubin_handle = 1
GPGPU-Sim PTX: Parsing CORR.1.sm_30.ptx
GPGPU-Sim PTX: instruction assembly for function '_Z11mean_kernelPfS_'...   done.
GPGPU-Sim PTX: instruction assembly for function '_Z10std_kernelPfS_S_'...   done.
GPGPU-Sim PTX: instruction assembly for function '_Z13reduce_kernelPfS_S_'...   done.
GPGPU-Sim PTX: instruction assembly for function '_Z11corr_kernelPfS_'...   done.
GPGPU-Sim PTX: finished parsing EMBEDDED .ptx file CORR.1.sm_30.ptx
GPGPU-Sim PTX: loading globals with explicit initializers... 
GPGPU-Sim PTX: finished loading globals (0 bytes total).
GPGPU-Sim PTX: loading constants with explicit initializers...  done.
GPGPU-Sim PTX: Loading PTXInfo from CORR.1.sm_30.ptx
GPGPU-Sim PTX: Kernel '_Z11corr_kernelPfS_' : regs=25, lmem=0, smem=0, cmem=336
GPGPU-Sim PTX: Kernel '_Z13reduce_kernelPfS_S_' : regs=13, lmem=0, smem=0, cmem=360
GPGPU-Sim PTX: Kernel '_Z10std_kernelPfS_S_' : regs=17, lmem=0, smem=0, cmem=380
GPGPU-Sim PTX: Kernel '_Z11mean_kernelPfS_' : regs=15, lmem=0, smem=0, cmem=364
GPGPU-Sim PTX: __cudaRegisterFunction _Z13reduce_kernelPfS_S_ : hostFun 0x0x58bf06002216, fat_cubin_handle = 1
GPGPU-Sim PTX: __cudaRegisterFunction _Z10std_kernelPfS_S_ : hostFun 0x0x58bf06002091, fat_cubin_handle = 1
GPGPU-Sim PTX: __cudaRegisterFunction _Z11mean_kernelPfS_ : hostFun 0x0x58bf06001f14, fat_cubin_handle = 1
setting device 0 with name GPGPU-Sim_vGPGPU-Sim Simulator Version 4.2.0 
GPGPU-Sim PTX: Setting up arguments for 8 bytes starting at 0x7fff8a0526d8..
GPGPU-Sim PTX: Setting up arguments for 8 bytes starting at 0x7fff8a0526d0..

GPGPU-Sim PTX: cudaLaunch for 0x0x58bf06001f14 (mode=performance simulation) on stream 0
GPGPU-Sim PTX: finding reconvergence points for '_Z11mean_kernelPfS_'...
GPGPU-Sim PTX: Finding dominators for '_Z11mean_kernelPfS_'...
GPGPU-Sim PTX: Finding immediate dominators for '_Z11mean_kernelPfS_'...
GPGPU-Sim PTX: Finding postdominators for '_Z11mean_kernelPfS_'...
GPGPU-Sim PTX: Finding immediate postdominators for '_Z11mean_kernelPfS_'...
GPGPU-Sim PTX: pre-decoding instructions for '_Z11mean_kernelPfS_'...
GPGPU-Sim PTX: reconvergence points for _Z11mean_kernelPfS_...
GPGPU-Sim PTX:  1 (potential) branch divergence @  PC=0x038 (CORR.1.sm_30.ptx:33) @%p1 bra BB0_4;
GPGPU-Sim PTX:    immediate post dominator      @  PC=0x240 (CORR.1.sm_30.ptx:104) ret;
GPGPU-Sim PTX:  2 (potential) branch divergence @  PC=0x228 (CORR.1.sm_30.ptx:98) @%p2 bra BB0_2;
GPGPU-Sim PTX:    immediate post dominator      @  PC=0x230 (CORR.1.sm_30.ptx:100) div.rn.f32 %f35, %f36, 0f4A442E10;
GPGPU-Sim PTX: ... end of reconvergence points for _Z11mean_kernelPfS_
GPGPU-Sim PTX: ... done pre-decoding instructions for '_Z11mean_kernelPfS_'.
GPGPU-Sim PTX: pushing kernel '_Z11mean_kernelPfS_' to stream 0, gridDim= (8,1,1) blockDim = (256,1,1) 
GPGPU-Sim uArch: Shader 0 bind to kernel 1 '_Z11mean_kernelPfS_'
GPGPU-Sim uArch: CTA/core = 8, limited by: threads
GPGPU-Sim: Reconfigure L1 cache to 128KB
GPGPU-Sim uArch: Shader 2 bind to kernel 1 '_Z11mean_kernelPfS_'
GPGPU-Sim uArch: Shader 4 bind to kernel 1 '_Z11mean_kernelPfS_'
GPGPU-Sim uArch: Shader 6 bind to kernel 1 '_Z11mean_kernelPfS_'
GPGPU-Sim uArch: Shader 8 bind to kernel 1 '_Z11mean_kernelPfS_'
GPGPU-Sim uArch: Shader 10 bind to kernel 1 '_Z11mean_kernelPfS_'
GPGPU-Sim uArch: Shader 12 bind to kernel 1 '_Z11mean_kernelPfS_'
GPGPU-Sim uArch: Shader 14 bind to kernel 1 '_Z11mean_kernelPfS_'
Destroy streams for kernel 1: size 0
kernel_name = _Z11mean_kernelPfS_ 
kernel_launch_uid = 1 
kernel_stream_id = 0
gpu_sim_cycle = 708941
gpu_sim_insn = 14190592
gpu_ipc =      20.0166
gpu_tot_sim_cycle = 708941
gpu_tot_sim_insn = 14190592
gpu_tot_ipc =      20.0166
gpu_tot_issued_cta = 8
gpu_occupancy = 12.4986% 
gpu_tot_occupancy = 12.4986% 
max_total_param_size = 0
gpu_stall_dramfull = 0
gpu_stall_icnt2sh    = 0
partiton_level_parallism =       1.6851
partiton_level_parallism_total  =       1.6851
partiton_level_parallism_util =       1.9414
partiton_level_parallism_util_total  =       1.9414
L2_BW  =      64.7072 GB/Sec
L2_BW_total  =      64.7072 GB/Sec
gpu_total_sim_rate=40544

========= Core cache stats =========
L1I_cache:
	L1I_total_cache_accesses = 0
	L1I_total_cache_misses = 0
	L1I_total_cache_pending_hits = 0
	L1I_total_cache_reservation_fails = 0
L1D_cache:
	L1D_cache_core[0]: Access = 161872, Miss = 67361, Miss_rate = 0.416, Pending_hits = 12544, Reservation_fails = 2340
	L1D_cache_core[1]: Access = 161872, Miss = 67361, Miss_rate = 0.416, Pending_hits = 12544, Reservation_fails = 3179
	L1D_cache_core[2]: Access = 161872, Miss = 67361, Miss_rate = 0.416, Pending_hits = 12544, Reservation_fails = 2755
	L1D_cache_core[3]: Access = 161872, Miss = 67361, Miss_rate = 0.416, Pending_hits = 12544, Reservation_fails = 2449
	L1D_cache_core[4]: Access = 161872, Miss = 67361, Miss_rate = 0.416, Pending_hits = 12544, Reservation_fails = 3040
	L1D_cache_core[5]: Access = 161872, Miss = 67361, Miss_rate = 0.416, Pending_hits = 12544, Reservation_fails = 3080
	L1D_cache_core[6]: Access = 161872, Miss = 67361, Miss_rate = 0.416, Pending_hits = 12544, Reservation_fails = 2372
	L1D_cache_core[7]: Access = 161872, Miss = 67361, Miss_rate = 0.416, Pending_hits = 12535, Reservation_fails = 2241
	L1D_cache_core[8]: Access = 0, Miss = 0, Miss_rate = -nan, Pending_hits = 0, Reservation_fails = 0
	L1D_cache_core[9]: Access = 0, Miss = 0, Miss_rate = -nan, Pending_hits = 0, Reservation_fails = 0
	L1D_cache_core[10]: Access = 0, Miss = 0, Miss_rate = -nan, Pending_hits = 0, Reservation_fails = 0
	L1D_cache_core[11]: Access = 0, Miss = 0, Miss_rate = -nan, Pending_hits = 0, Reservation_fails = 0
	L1D_cache_core[12]: Access = 0, Miss = 0, Miss_rate = -nan, Pending_hits = 0, Reservation_fails = 0
	L1D_cache_core[13]: Access = 0, Miss = 0, Miss_rate = -nan, Pending_hits = 0, Reservation_fails = 0
	L1D_cache_core[14]: Access = 0, Miss = 0, Miss_rate = -nan, Pending_hits = 0, Reservation_fails = 0
	L1D_cache_core[15]: Access = 0, Miss = 0, Miss_rate = -nan, Pending_hits = 0, Reservation_fails = 0
	L1D_cache_core[16]: Access = 0, Miss = 0, Miss_rate = -nan, Pending_hits = 0, Reservation_fails = 0
	L1D_cache_core[17]: Access = 0, Miss = 0, Miss_rate = -nan, Pending_hits = 0, Reservation_fails = 0
	L1D_cache_core[18]: Access = 0, Miss = 0, Miss_rate = -nan, Pending_hits = 0, Reservation_fails = 0
	L1D_cache_core[19]: Access = 0, Miss = 0, Miss_rate = -nan, Pending_hits = 0, Reservation_fails = 0
	L1D_cache_core[20]: Access = 0, Miss = 0, Miss_rate = -nan, Pending_hits = 0, Reservation_fails = 0
	L1D_cache_core[21]: Access = 0, Miss = 0, Miss_rate = -nan, Pending_hits = 0, Reservation_fails = 0
	L1D_cache_core[22]: Access = 0, Miss = 0, Miss_rate = -nan, Pending_hits = 0, Reservation_fails = 0
	L1D_cache_core[23]: Access = 0, Miss = 0, Miss_rate = -nan, Pending_hits = 0, Reservation_fails = 0
	L1D_cache_core[24]: Access = 0, Miss = 0, Miss_rate = -nan, Pending_hits = 0, Reservation_fails = 0
	L1D_cache_core[25]: Access = 0, Miss = 0, Miss_rate = -nan, Pending_hits = 0, Reservation_fails = 0
	L1D_cache_core[26]: Access = 0, Miss = 0, Miss_rate = -nan, Pending_hits = 0, Reservation_fails = 0
	L1D_cache_core[27]: Access = 0, Miss = 0, Miss_rate = -nan, Pending_hits = 0, Reservation_fails = 0
	L1D_cache_core[28]: Access = 0, Miss = 0, Miss_rate = -nan, Pending_hits = 0, Reservation_fails = 0
	L1D_cache_core[29]: Access = 0, Miss = 0, Miss_rate = -nan, Pending_hits = 0, Reservation_fails = 0
	L1D_cache_core[30]: Access = 0, Miss = 0, Miss_rate = -nan, Pending_hits = 0, Reservation_fails = 0
	L1D_cache_core[31]: Access = 0, Miss = 0, Miss_rate = -nan, Pending_hits = 0, Reservation_fails = 0
	L1D_cache_core[32]: Access = 0, Miss = 0, Miss_rate = -nan, Pending_hits = 0, Reservation_fails = 0
	L1D_cache_core[33]: Access = 0, Miss = 0, Miss_rate = -nan, Pending_hits = 0, Reservation_fails = 0
	L1D_cache_core[34]: Access = 0, Miss = 0, Miss_rate = -nan, Pending_hits = 0, Reservation_fails = 0
	L1D_cache_core[35]: Access = 0, Miss = 0, Miss_rate = -nan, Pending_hits = 0, Reservation_fails = 0
	L1D_cache_core[36]: Access = 0, Miss = 0, Miss_rate = -nan, Pending_hits = 0, Reservation_fails = 0
	L1D_cache_core[37]: Access = 0, Miss = 0, Miss_rate = -nan, Pending_hits = 0, Reservation_fails = 0
	L1D_cache_core[38]: Access = 0, Miss = 0, Miss_rate = -nan, Pending_hits = 0, Reservation_fails = 0
	L1D_cache_core[39]: Access = 0, Miss = 0, Miss_rate = -nan, Pending_hits = 0, Reservation_fails = 0
	L1D_total_cache_accesses = 1294976
	L1D_total_cache_misses = 538888
	L1D_total_cache_miss_rate = 0.4161
	L1D_total_cache_pending_hits = 100343
	L1D_total_cache_reservation_fails = 21456
	L1D_cache_data_port_util = 0.116
	L1D_cache_fill_port_util = 0.095
L1C_cache:
GPGPU-Sim: synchronize waiting for inactive GPU simulation
GPGPU-Sim API: Stream Manager State
	L1C_total_cache_accesses = 0
	L1C_total_cache_misses = 0
	L1C_total_cache_pending_hits = 0
	L1C_total_cache_reservation_fails = 0
L1T_cache:
	L1T_total_cache_accesses = 0
	L1T_total_cache_misses = 0
	L1T_total_cache_pending_hits = 0
	L1T_total_cache_reservation_fails = 0

Total_core_cache_stats:
	Total_core_cache_stats_breakdown[GLOBAL_ACC_R][HIT] = 9
	Total_core_cache_stats_breakdown[GLOBAL_ACC_R][HIT_RESERVED] = 100343
	Total_core_cache_stats_breakdown[GLOBAL_ACC_R][MISS] = 146944
	Total_core_cache_stats_breakdown[GLOBAL_ACC_R][RESERVATION_FAIL] = 19766
	Total_core_cache_stats_breakdown[GLOBAL_ACC_R][SECTOR_MISS] = 391680
	Total_core_cache_stats_breakdown[GLOBAL_ACC_R][MSHR_HIT] = 100343
	Total_core_cache_stats_breakdown[LOCAL_ACC_R][HIT] = 0
	Total_core_cache_stats_breakdown[LOCAL_ACC_R][HIT_RESERVED] = 0
	Total_core_cache_stats_breakdown[LOCAL_ACC_R][MISS] = 0
	Total_core_cache_stats_breakdown[LOCAL_ACC_R][RESERVATION_FAIL] = 0
	Total_core_cache_stats_breakdown[LOCAL_ACC_R][SECTOR_MISS] = 0
	Total_core_cache_stats_breakdown[LOCAL_ACC_R][MSHR_HIT] = 0
	Total_core_cache_stats_breakdown[CONST_ACC_R][HIT] = 0
	Total_core_cache_stats_breakdown[CONST_ACC_R][HIT_RESERVED] = 0
	Total_core_cache_stats_breakdown[CONST_ACC_R][MISS] = 0
	Total_core_cache_stats_breakdown[CONST_ACC_R][RESERVATION_FAIL] = 0
	Total_core_cache_stats_breakdown[CONST_ACC_R][SECTOR_MISS] = 0
	Total_core_cache_stats_breakdown[CONST_ACC_R][MSHR_HIT] = 0
	Total_core_cache_stats_breakdown[TEXTURE_ACC_R][HIT] = 0
	Total_core_cache_stats_breakdown[TEXTURE_ACC_R][HIT_RESERVED] = 0
	Total_core_cache_stats_breakdown[TEXTURE_ACC_R][MISS] = 0
	Total_core_cache_stats_breakdown[TEXTURE_ACC_R][RESERVATION_FAIL] = 0
	Total_core_cache_stats_breakdown[TEXTURE_ACC_R][SECTOR_MISS] = 0
	Total_core_cache_stats_breakdown[TEXTURE_ACC_R][MSHR_HIT] = 0
	Total_core_cache_stats_breakdown[GLOBAL_ACC_W][HIT] = 655736
	Total_core_cache_stats_breakdown[GLOBAL_ACC_W][HIT_RESERVED] = 0
	Total_core_cache_stats_breakdown[GLOBAL_ACC_W][MISS] = 72
	Total_core_cache_stats_breakdown[GLOBAL_ACC_W][RESERVATION_FAIL] = 1690
	Total_core_cache_stats_breakdown[GLOBAL_ACC_W][SECTOR_MISS] = 192
	Total_core_cache_stats_breakdown[GLOBAL_ACC_W][MSHR_HIT] = 0
	Total_core_cache_stats_breakdown[LOCAL_ACC_W][HIT] = 0
	Total_core_cache_stats_breakdown[LOCAL_ACC_W][HIT_RESERVED] = 0
	Total_core_cache_stats_breakdown[LOCAL_ACC_W][MISS] = 0
	Total_core_cache_stats_breakdown[LOCAL_ACC_W][RESERVATION_FAIL] = 0
	Total_core_cache_stats_breakdown[LOCAL_ACC_W][SECTOR_MISS] = 0
	Total_core_cache_stats_breakdown[LOCAL_ACC_W][MSHR_HIT] = 0
	Total_core_cache_stats_breakdown[L1_WRBK_ACC][HIT] = 0
	Total_core_cache_stats_breakdown[L1_WRBK_ACC][HIT_RESERVED] = 0
	Total_core_cache_stats_breakdown[L1_WRBK_ACC][MISS] = 0
	Total_core_cache_stats_breakdown[L1_WRBK_ACC][RESERVATION_FAIL] = 0
	Total_core_cache_stats_breakdown[L1_WRBK_ACC][SECTOR_MISS] = 0
	Total_core_cache_stats_breakdown[L1_WRBK_ACC][MSHR_HIT] = 0
	Total_core_cache_stats_breakdown[L2_WRBK_ACC][HIT] = 0
	Total_core_cache_stats_breakdown[L2_WRBK_ACC][HIT_RESERVED] = 0
	Total_core_cache_stats_breakdown[L2_WRBK_ACC][MISS] = 0
	Total_core_cache_stats_breakdown[L2_WRBK_ACC][RESERVATION_FAIL] = 0
	Total_core_cache_stats_breakdown[L2_WRBK_ACC][SECTOR_MISS] = 0
	Total_core_cache_stats_breakdown[L2_WRBK_ACC][MSHR_HIT] = 0
	Total_core_cache_stats_breakdown[INST_ACC_R][HIT] = 0
	Total_core_cache_stats_breakdown[INST_ACC_R][HIT_RESERVED] = 0
	Total_core_cache_stats_breakdown[INST_ACC_R][MISS] = 0
	Total_core_cache_stats_breakdown[INST_ACC_R][RESERVATION_FAIL] = 0
	Total_core_cache_stats_breakdown[INST_ACC_R][SECTOR_MISS] = 0
	Total_core_cache_stats_breakdown[INST_ACC_R][MSHR_HIT] = 0
	Total_core_cache_stats_breakdown[L1_WR_ALLOC_R][HIT] = 0
	Total_core_cache_stats_breakdown[L1_WR_ALLOC_R][HIT_RESERVED] = 0
	Total_core_cache_stats_breakdown[L1_WR_ALLOC_R][MISS] = 0
	Total_core_cache_stats_breakdown[L1_WR_ALLOC_R][RESERVATION_FAIL] = 0
	Total_core_cache_stats_breakdown[L1_WR_ALLOC_R][SECTOR_MISS] = 0
	Total_core_cache_stats_breakdown[L1_WR_ALLOC_R][MSHR_HIT] = 0
	Total_core_cache_stats_breakdown[L2_WR_ALLOC_R][HIT] = 0
	Total_core_cache_stats_breakdown[L2_WR_ALLOC_R][HIT_RESERVED] = 0
	Total_core_cache_stats_breakdown[L2_WR_ALLOC_R][MISS] = 0
	Total_core_cache_stats_breakdown[L2_WR_ALLOC_R][RESERVATION_FAIL] = 0
	Total_core_cache_stats_breakdown[L2_WR_ALLOC_R][SECTOR_MISS] = 0
	Total_core_cache_stats_breakdown[L2_WR_ALLOC_R][MSHR_HIT] = 0
	Total_core_cache_stats_breakdown[GLOBAL_ACC_R][TOTAL_ACCESS] = 638976
	Total_core_cache_stats_breakdown[GLOBAL_ACC_W][TOTAL_ACCESS] = 656000

Total_core_cache_fail_stats:
	Total_core_cache_fail_stats_breakdown[GLOBAL_ACC_R][MISS_QUEUE_FULL] = 19766
	Total_core_cache_fail_stats_breakdown[GLOBAL_ACC_W][MISS_QUEUE_FULL] = 1690
ctas_completed 8, Shader 0 warp_id issue ditsribution:
warp_id:
0, 1, 2, 3, 4, 5, 6, 7, 
distro:
6931, 6931, 6931, 6931, 6931, 6931, 6931, 6931, 
gpgpu_n_tot_thrd_icount = 14194688
gpgpu_n_tot_w_icount = 443584
gpgpu_n_stall_shd_mem = 245889
gpgpu_n_mem_read_local = 0
gpgpu_n_mem_write_local = 0
gpgpu_n_mem_read_global = 538624
gpgpu_n_mem_write_global = 656000
gpgpu_n_mem_texture = 0
gpgpu_n_mem_const = 0
gpgpu_n_load_insn  = 4194304
gpgpu_n_store_insn = 4198400
gpgpu_n_shmem_insn = 0
gpgpu_n_sstarr_insn = 0
gpgpu_n_tex_insn = 0
gpgpu_n_const_mem_insn = 0
gpgpu_n_param_mem_insn = 4096
gpgpu_n_shmem_bkconflict = 0
gpgpu_n_l1cache_bkconflict = 1
gpgpu_n_intrawarp_mshr_merge = 0
gpgpu_n_cmem_portconflict = 0
gpgpu_stall_shd_mem[c_mem][resource_stall] = 0
gpgpu_stall_shd_mem[s_mem][bk_conf] = 0
gpgpu_stall_shd_mem[gl_mem][resource_stall] = 1
gpgpu_stall_shd_mem[gl_mem][coal_stall] = 245888
gpgpu_stall_shd_mem[gl_mem][data_port_stall] = 0
gpu_reg_bank_conflict_stalls = 0
Warp Occupancy Distribution:
Stall:171	W0_Idle:7306	W0_Scoreboard:22226419	W1:0	W2:0	W3:0	W4:0	W5:0	W6:0	W7:0	W8:0	W9:0	W10:0	W11:0	W12:0	W13:0	W14:0	W15:0	W16:0	W17:0	W18:0	W19:0	W20:0	W21:0	W22:0	W23:0	W24:0	W25:0	W26:0	W27:0	W28:0	W29:0	W30:0	W31:0	W32:443584
single_issue_nums: WS0:110896	WS1:110896	WS2:110896	WS3:110896	
dual_issue_nums: WS0:0	WS1:0	WS2:0	WS3:0	
traffic_breakdown_coretomem[GLOBAL_ACC_R] = 4308992 {8:538624,}
traffic_breakdown_coretomem[GLOBAL_ACC_W] = 26240000 {40:656000,}
traffic_breakdown_memtocore[GLOBAL_ACC_R] = 21544960 {40:538624,}
traffic_breakdown_memtocore[GLOBAL_ACC_W] = 5248000 {8:656000,}
maxmflatency = 416 
max_icnt2mem_latency = 84 
maxmrqlatency = 91 
max_icnt2sh_latency = 14 
averagemflatency = 249 
avg_icnt2mem_latency = 27 
avg_mrq_latency = 5 
avg_icnt2sh_latency = 2 
mrq_lat_table:158609 	211866 	100139 	9626 	18470 	25819 	16 	0 	0 	0 	0 	0 	0 	0 	0 	0 	0 	0 	0 	0 	0 	0 	0 	0 	0 	0 	0 	0 	0 	0 	0 	0 	
dq_lat_table:0 	0 	0 	0 	0 	0 	0 	0 	0 	0 	0 	0 	0 	0 	0 	0 	0 	0 	0 	0 	0 	0 	0 	0 	0 	0 	0 	0 	0 	0 	0 	0 	
mf_lat_table:0 	0 	0 	0 	0 	0 	0 	657163 	537461 	0 	0 	0 	0 	0 	0 	0 	0 	0 	0 	0 	0 	0 	0 	0 	0 	0 	0 	0 	0 	0 	0 	0 	
icnt2mem_lat_table:0 	0 	0 	0 	1062752 	131624 	248 	0 	0 	0 	0 	0 	0 	0 	0 	0 	0 	0 	0 	0 	0 	0 	0 	0 	
icnt2sh_lat_table:0 	1174083 	20160 	381 	0 	0 	0 	0 	0 	0 	0 	0 	0 	0 	0 	0 	0 	0 	0 	0 	0 	0 	0 	0 	
mf_lat_pw_table:0 	0 	0 	0 	0 	0 	0 	1278 	139 	0 	0 	0 	0 	0 	0 	0 	0 	0 	0 	0 	0 	0 	0 	0 	0 	0 	0 	0 	0 	0 	0 	0 	
maximum concurrent accesses to same row:
dram[0]:        96        96        96        96        96        96        96        96        96        96        96        96        96        96        96        96 
dram[1]:        96        96        96        96        96        96        96        96        96        96        96        96        96        96        96        96 
dram[2]:        96        96        96        96        96        96        96        96        96        96        96        96        96        96        96        96 
dram[3]:        96        96        96        96        96        96        96        96        96        96        96        96        96        96        96        96 
dram[4]:        96        96        96        96        96        96        96        96        96        96        96        96        96        96        96        96 
dram[5]:        96        96        96        96        96        96        96        96        96        96        96        96        96        96        96        96 
dram[6]:        96        96        96        96        96        96        96        96        96        96        96        96        96        96        96        96 
dram[7]:        96        96        96        96        96        96        96        96        96        96        96        96        96        96        96        96 
dram[8]:        64        64        64        64        64        64        64        64        64        64        64        64        64        64        64        64 
dram[9]:        64        64        64        64        64        64        64        64        64        64        64        64        64        64        64        64 
dram[10]:        64        64        64        64        64        64        64        64        64        64        64        64        64        64        64        64 
dram[11]:        64        64        64        64        64        64        64        64        64        64        64        64        64        64        64        64 
dram[12]:        64        64        64        64        64        64        64        64        64        64        64        64        64        64        64        64 
dram[13]:        64        64        64        64        64        64        64        64        64        64        64        64        64        64        64        64 
dram[14]:        64        64        64        64        64        64        64        64        64        64        64        64        64        64        64        64 
dram[15]:        64        64        64        64        64        64        64        64        64        64        64        64        64        64        64        64 
dram[16]:        64        64        64        64        64        64        64        64        64        64        64        64        64        64        64        64 
dram[17]:        64        64        64        64        64        64        64        64        64        64        64        64        64        64        64        64 
dram[18]:        64        64        64        64        64        64        64        64        64        64        64        64        64        64        64        64 
dram[19]:        64        64        64        64        64        64        64        64        64        64        64        64        64        64        64        64 
dram[20]:        64        64        64        64        64        64        64        64        64        64        64        64        64        64        64        64 
dram[21]:        64        64        64        64        64        64        64        64        64        64        64        64        64        64        64        64 
dram[22]:        64        64        64        64        64        64        64        64        64        64        64        64        64        64        64        64 
dram[23]:        64        64        64        64        64        64        64        64        64        64        64        64        64        64        64        64 
maximum service time to same row:
dram[0]:     37532     37909     45795     46207     53706     54111     62040     62356     37566     37792     45857     46085     53526     53873     61863     62198 
dram[1]:     37547     37889     45873     46171     53728     54175     61999     62435     37700     37745     45808     46027     53605     53870     61931     62165 
dram[2]:     37658     37767     45801     46136     53571     54244     61941     62500     37625     38023     45829     46189     53661     53979     61972     62254 
dram[3]:     37636     37764     45807     46094     53676     54381     62010     62610     37591     37881     45871     46156     53715     53981     62051     62157 
dram[4]:     37488     38245     45746     46191     53877     54029     62184     62344     37488     37819     45796     46135     53491     53819     61818     62099 
dram[5]:     37419     38209     45734     46103     53936     54070     62237     62387     37539     37839     45781     46025     53538     53928     61857     62214 
dram[6]:     37557     37704     45639     46063     53783     54052     62070     62347     37573     38207     45769     46214     53571     53869     61912     62216 
dram[7]:     37614     37668     45813     46004     53855     54063     62151     62331     37500     38148     45808     46183     53636     53808     61956     62085 
dram[8]:     39464     39900     47891     48475     54021     54338     61911     62177     39389     39795     47749     47876     53918     54336     59752     60302 
dram[9]:     39539     39926     47866     48483     53977     54332     61881     62218     39471     39814     47760     47869     53937     54265     59750     60454 
dram[10]:     39435     39847     47839     48487     54130     54364     61924     62184     39473     39900     47743     47952     53935     54453     59832     60299 
dram[11]:     39515     39789     47815     48491     54083     54367     61896     62063     39461     39919     47771     47880     53925     54403     59806     60281 
dram[12]:     39695     40014     47897     48506     53845     54255     61875     62435     39683     39891     47853     48037     53947     54275     59822     60449 
dram[13]:     39604     39967     47901     48433     53853     54287     61832     62343     39539     39880     47896     47992     54028     54230     59837     60387 
dram[14]:     39440     39981     47915     48276     53904     54297     61852     62321     39742     39986     47856     48275     54055     54381     59974     60478 
dram[15]:     39428     40012     47891     48256     53861     54327     61851     62272     39649     39910     47874     48063     54192     54311     60117     60487 
dram[16]:     39600     40191     47656     48027     53595     53889     62320     62657     39448     39507     47594     47905     51508     51999     62217     62639 
dram[17]:     39573     40253     47825     47865     53606     53877     62250     62641     39349     39516     47575     47940     51483     52147     62269     62579 
dram[18]:     39514     40175     47585     47820     53635     53845     62464     62626     39385     39600     47608     48031     51484     51970     62307     62753 
dram[19]:     39488     40174     47609     47748     53633     53699     62376     62620     39438     39567     47690     48062     51475     51958     62272     62708 
dram[20]:     39555     40152     47825     48299     53541     54177     62169     62601     39490     39717     47856     48157     51494     52094     62282     62594 
dram[21]:     39562     40116     47932     48231     53514     54008     62164     62644     39551     39640     47852     48101     51507     52016     62299     62557 
dram[22]:     39578     39987     47819     48147     53596     54045     62174     62622     39505     40095     47815     48286     51693     52221     62350     62692 
dram[23]:     39543     39925     47817     48085     53561     53998     62147     62618     39511     39962     47839     48206     51792     52173     62459     62634 
average row accesses per activate:
dram[0]: 95.272728 95.272728 96.000000 96.000000 96.000000 96.000000 96.000000 96.000000 96.000000 96.000000 96.000000 96.000000 96.000000 96.000000 96.000000 96.000000 
dram[1]: 95.272728 95.272728 96.000000 96.000000 96.000000 96.000000 96.000000 96.000000 96.000000 96.000000 96.000000 96.000000 96.000000 96.000000 96.000000 96.000000 
dram[2]: 95.272728 95.272728 96.000000 96.000000 96.000000 96.000000 96.000000 96.000000 96.000000 96.000000 96.000000 96.000000 96.000000 96.000000 96.000000 96.000000 
dram[3]: 95.272728 95.272728 96.000000 96.000000 96.000000 96.000000 96.000000 96.000000 96.000000 96.000000 96.000000 96.000000 96.000000 96.000000 96.000000 96.000000 
dram[4]: 95.272728 95.272728 96.000000 96.000000 96.000000 96.000000 96.000000 96.000000 96.000000 96.000000 96.000000 96.000000 96.000000 96.000000 96.000000 96.000000 
dram[5]: 95.272728 95.272728 96.000000 96.000000 96.000000 96.000000 96.000000 96.000000 96.000000 96.000000 96.000000 96.000000 96.000000 96.000000 96.000000 96.000000 
dram[6]: 95.272728 95.272728 96.000000 96.000000 96.000000 96.000000 96.000000 96.000000 96.000000 96.000000 96.000000 96.000000 96.000000 96.000000 96.000000 96.000000 
dram[7]: 95.272728 95.272728 96.000000 96.000000 96.000000 96.000000 96.000000 96.000000 96.000000 96.000000 96.000000 96.000000 96.000000 96.000000 96.000000 96.000000 
dram[8]: 45.454544 46.181820 48.761906 48.761906 49.454544 49.454544 46.545456 46.545456 47.238094 47.238094 48.761906 48.761906 48.761906 48.761906 47.238094 47.238094 
dram[9]: 45.454544 46.181820 48.761906 48.761906 49.454544 49.454544 46.545456 46.545456 47.238094 47.238094 48.761906 48.761906 48.761906 48.761906 47.238094 47.238094 
dram[10]: 45.454544 46.181820 48.761906 48.761906 49.454544 49.454544 46.545456 46.545456 47.238094 47.238094 48.761906 48.761906 48.761906 48.761906 47.238094 47.238094 
dram[11]: 45.454544 46.181820 48.761906 48.761906 49.454544 49.454544 46.545456 46.545456 47.238094 47.238094 48.761906 48.761906 48.761906 48.761906 47.238094 47.238094 
dram[12]: 45.454544 46.181820 48.761906 48.761906 49.454544 49.454544 46.545456 46.545456 47.238094 47.238094 48.761906 48.761906 48.761906 48.761906 47.238094 47.238094 
dram[13]: 45.454544 46.181820 48.761906 48.761906 49.454544 49.454544 46.545456 46.545456 47.238094 47.238094 48.761906 48.761906 48.761906 48.761906 47.238094 47.238094 
dram[14]: 45.454544 46.181820 48.761906 48.761906 49.454544 49.454544 46.545456 46.545456 47.238094 47.238094 48.761906 48.761906 48.761906 48.761906 47.238094 47.238094 
dram[15]: 45.454544 46.181820 48.761906 48.761906 49.454544 49.454544 46.545456 46.545456 47.238094 47.238094 48.761906 48.761906 48.761906 48.761906 47.238094 47.238094 
dram[16]: 48.409092 49.090908 47.238094 47.238094 46.545456 46.545456 49.454544 49.454544 48.761906 48.761906 47.238094 47.238094 47.238094 47.238094 48.761906 48.761906 
dram[17]: 48.363636 49.090908 47.238094 47.238094 46.545456 46.545456 49.454544 49.454544 48.761906 48.761906 47.238094 47.238094 47.238094 47.238094 48.761906 48.761906 
dram[18]: 44.333332 49.090908 47.238094 47.238094 46.545456 46.545456 49.454544 49.454544 48.761906 48.761906 47.238094 47.238094 47.238094 47.238094 48.761906 48.761906 
dram[19]: 44.333332 49.090908 47.238094 47.238094 46.545456 46.545456 49.454544 49.454544 48.761906 48.761906 47.238094 47.238094 47.238094 47.238094 48.761906 48.761906 
dram[20]: 44.333332 49.090908 47.238094 47.238094 46.545456 46.545456 49.454544 49.454544 48.761906 48.761906 47.238094 47.238094 47.238094 47.238094 48.761906 48.761906 
dram[21]: 44.333332 49.090908 47.238094 47.238094 46.545456 46.545456 49.454544 49.454544 48.761906 48.761906 47.238094 47.238094 47.238094 47.238094 48.761906 48.761906 
dram[22]: 44.333332 49.090908 47.238094 47.238094 46.545456 46.545456 49.454544 49.454544 48.761906 48.761906 47.238094 47.238094 47.238094 47.238094 48.761906 48.761906 
dram[23]: 44.333332 49.090908 47.238094 47.238094 46.545456 46.545456 49.454544 49.454544 48.761906 48.761906 47.238094 47.238094 47.238094 47.238094 48.761906 48.761906 
average row locality = 524545/8220 = 63.813259
number of total memory accesses made:
dram[0]:         0         0         0         0         0         0         0         0         0         0         0         0         0         0         0         0 
dram[1]:         0         0         0         0         0         0         0         0         0         0         0         0         0         0         0         0 
dram[2]:         0         0         0         0         0         0         0         0         0         0         0         0         0         0         0         0 
dram[3]:         0         0         0         0         0         0         0         0         0         0         0         0         0         0         0         0 
dram[4]:         0         0         0         0         0         0         0         0         0         0         0         0         0         0         0         0 
dram[5]:         0         0         0         0         0         0         0         0         0         0         0         0         0         0         0         0 
dram[6]:         0         0         0         0         0         0         0         0         0         0         0         0         0         0         0         0 
dram[7]:         0         0         0         0         0         0         0         0         0         0         0         0         0         0         0         0 
dram[8]:         0         0         0         0         0         0         0         0         0         0         0         0         0         0         0         0 
dram[9]:         0         0         0         0         0         0         0         0         0         0         0         0         0         0         0         0 
dram[10]:         0         0         0         0         0         0         0         0         0         0         0         0         0         0         0         0 
dram[11]:         0         0         0         0         0         0         0         0         0         0         0         0         0         0         0         0 
dram[12]:         0         0         0         0         0         0         0         0         0         0         0         0         0         0         0         0 
dram[13]:         0         0         0         0         0         0         0         0         0         0         0         0         0         0         0         0 
dram[14]:         0         0         0         0         0         0         0         0         0         0         0         0         0         0         0         0 
dram[15]:         0         0         0         0         0         0         0         0         0         0         0         0         0         0         0         0 
dram[16]:         0         0         0         0         0         0         0         0         0         0         0         0         0         0         0         0 
dram[17]:         0         0         0         0         0         0         0         0         0         0         0         0         0         0         0         0 
dram[18]:         0         0         0         0         0         0         0         0         0         0         0         0         0         0         0         0 
dram[19]:         0         0         0         0         0         0         0         0         0         0         0         0         0         0         0         0 
dram[20]:         0         0         0         0         0         0         0         0         0         0         0         0         0         0         0         0 
dram[21]:         0         0         0         0         0         0         0         0         0         0         0         0         0         0         0         0 
dram[22]:         0         0         0         0         0         0         0         0         0         0         0         0         0         0         0         0 
dram[23]:         0         0         0         0         0         0         0         0         0         0         0         0         0         0         0         0 
total accesses: 0
min_bank_accesses = 0!
min_chip_accesses = 0!
number of total read accesses:
dram[0]:      2104      2104      2112      2112      2104      2104      2016      2016      2016      2016      2016      2016      2016      2016      2016      2016 
dram[1]:      2104      2104      2112      2112      2104      2104      2016      2016      2016      2016      2016      2016      2016      2016      2016      2016 
dram[2]:      2104      2104      2112      2112      2104      2104      2016      2016      2016      2016      2016      2016      2016      2016      2016      2016 
dram[3]:      2104      2104      2112      2112      2104      2104      2016      2016      2016      2016      2016      2016      2016      2016      2016      2016 
dram[4]:      2104      2104      2112      2112      2104      2104      2016      2016      2016      2016      2016      2016      2016      2016      2016      2016 
dram[5]:      2104      2104      2112      2112      2104      2104      2016      2016      2016      2016      2016      2016      2016      2016      2016      2016 
dram[6]:      2104      2104      2112      2112      2104      2104      2016      2016      2016      2016      2016      2016      2016      2016      2016      2016 
dram[7]:      2104      2104      2112      2112      2104      2104      2016      2016      2016      2016      2016      2016      2016      2016      2016      2016 
dram[8]:      1016      1024      1088      1088      1080      1072       960       960       960       960      1056      1056      1056      1056       960       960 
dram[9]:      1016      1024      1088      1088      1080      1072       960       960       960       960      1056      1056      1056      1056       960       960 
dram[10]:      1016      1024      1088      1088      1080      1072       960       960       960       960      1056      1056      1056      1056       960       960 
dram[11]:      1016      1024      1088      1088      1080      1072       960       960       960       960      1056      1056      1056      1056       960       960 
dram[12]:      1016      1024      1088      1088      1080      1072       960       960       960       960      1056      1056      1056      1056       960       960 
dram[13]:      1016      1024      1088      1088      1080      1072       960       960       960       960      1056      1056      1056      1056       960       960 
dram[14]:      1016      1024      1088      1088      1080      1072       960       960       960       960      1056      1056      1056      1056       960       960 
dram[15]:      1016      1024      1088      1088      1080      1072       960       960       960       960      1056      1056      1056      1056       960       960 
dram[16]:      1080      1088      1024      1024      1016      1009      1056      1056      1056      1056       960       960       960       960      1056      1056 
dram[17]:      1080      1088      1024      1024      1016      1008      1056      1056      1056      1056       960       960       960       960      1056      1056 
dram[18]:      1080      1088      1024      1024      1016      1008      1056      1056      1056      1056       960       960       960       960      1056      1056 
dram[19]:      1080      1088      1024      1024      1016      1008      1056      1056      1056      1056       960       960       960       960      1056      1056 
dram[20]:      1080      1088      1024      1024      1016      1008      1056      1056      1056      1056       960       960       960       960      1056      1056 
dram[21]:      1080      1088      1024      1024      1016      1008      1056      1056      1056      1056       960       960       960       960      1056      1056 
dram[22]:      1080      1088      1024      1024      1016      1008      1056      1056      1056      1056       960       960       960       960      1056      1056 
dram[23]:      1080      1088      1024      1024      1016      1008      1056      1056      1056      1056       960       960       960       960      1056      1056 
total dram reads = 524545
bank skew: 2112/960 = 2.20
chip skew: 32800/16352 = 2.01
number of total write accesses:
dram[0]:         0         0         0         0         0         0         0         0         0         0         0         0         0         0         0         0 
dram[1]:         0         0         0         0         0         0         0         0         0         0         0         0         0         0         0         0 
dram[2]:         0         0         0         0         0         0         0         0         0         0         0         0         0         0         0         0 
dram[3]:         0         0         0         0         0         0         0         0         0         0         0         0         0         0         0         0 
dram[4]:         0         0         0         0         0         0         0         0         0         0         0         0         0         0         0         0 
dram[5]:         0         0         0         0         0         0         0         0         0         0         0         0         0         0         0         0 
dram[6]:         0         0         0         0         0         0         0         0         0         0         0         0         0         0         0         0 
dram[7]:         0         0         0         0         0         0         0         0         0         0         0         0         0         0         0         0 
dram[8]:         0         0         0         0         0         0         0         0         0         0         0         0         0         0         0         0 
dram[9]:         0         0         0         0         0         0         0         0         0         0         0         0         0         0         0         0 
dram[10]:         0         0         0         0         0         0         0         0         0         0         0         0         0         0         0         0 
dram[11]:         0         0         0         0         0         0         0         0         0         0         0         0         0         0         0         0 
dram[12]:         0         0         0         0         0         0         0         0         0         0         0         0         0         0         0         0 
dram[13]:         0         0         0         0         0         0         0         0         0         0         0         0         0         0         0         0 
dram[14]:         0         0         0         0         0         0         0         0         0         0         0         0         0         0         0         0 
dram[15]:         0         0         0         0         0         0         0         0         0         0         0         0         0         0         0         0 
dram[16]:         0         0         0         0         0         0         0         0         0         0         0         0         0         0         0         0 
dram[17]:         0         0         0         0         0         0         0         0         0         0         0         0         0         0         0         0 
dram[18]:         0         0         0         0         0         0         0         0         0         0         0         0         0         0         0         0 
dram[19]:         0         0         0         0         0         0         0         0         0         0         0         0         0         0         0         0 
dram[20]:         0         0         0         0         0         0         0         0         0         0         0         0         0         0         0         0 
dram[21]:         0         0         0         0         0         0         0         0         0         0         0         0         0         0         0         0 
dram[22]:         0         0         0         0         0         0         0         0         0         0         0         0         0         0         0         0 
dram[23]:         0         0         0         0         0         0         0         0         0         0         0         0         0         0         0         0 
total dram writes = 0
min_bank_accesses = 0!
min_chip_accesses = 0!
average mf latency per bank:
dram[0]:        329       329       330       328       328       331       329       328       328       330      4209       328       328       329       330       329
dram[1]:        329       328       330       329       329       330       329       329       328       329      4207       328       328       329       329       329
dram[2]:        328       329       329       329       330       329       329       329       327       329      4211       329       327       329       330       329
dram[3]:        328       329       329       328       329       331       328       327       328       329      4204       328       328       329       330       329
dram[4]:        328       329       330       328       329       330       329       328       328       329      4211      2266       328       328       330       328
dram[5]:        328       328       330       328       329       330       329       328       328       329      4210      2268       328       329       330       328
dram[6]:        329       329       330       328       329       329       330       328       328       330      4203       520       326       329       329       329
dram[7]:        328       329       329       328       328       330       329       328       328       330      4204      2265       328       329       329       329
dram[8]:        330       331       330       331       330       330       331       329       329       331       331       330       330       330       331       331
dram[9]:        329       330       331       330       331       331       331       330       330       332       330       329       330       330       332       330
dram[10]:        331       331       330       330       329       332       330       330       329       332       331       330       329       332       331       331
dram[11]:        331       329       330       331       331       332       330       330       329       332       330       331       329       330       331       331
dram[12]:        330       330       331       330       330       331       331       330       329       332       331       329       330       330       331       331
dram[13]:        329       331       331       329       331       331       329       330       330       331       330       330       329       330       331       330
dram[14]:        331       331       330       330       329       332       330       329       329       332       331       330       330       330       331       330
dram[15]:        330       330       331       330       331       331       330       329       330       331       330       331       329       329       331       331
dram[16]:        329       330       331       330       330       332       330       329       330       331      4400      4396       329       331       331       330
dram[17]:        330       330       331       330       329       332       330       329       329       331      4401      4402       330       330       331       330
dram[18]:        331       331       331       330       330       331       330       329       330       331      4401      4389       329       330       331       331
dram[19]:        330       331       331       330       330       332       331       331       329       331      4399      4403       330       331       330       332
dram[20]:        330       330       331       330       330       333       331       329       330       332       331      4400       328       332       331       330
dram[21]:        330       330       331       331       330       332       331       329       329       331       331      4401       329       330       331       331
dram[22]:        329       330       331       330       329       331       329       329       329       331       331      4397       330       330       331       331
dram[23]:        331       330       330       331       330       332       330       329       329       330      3990      4403       330       331       330       331
maximum mf latency per bank:
dram[0]:        381       364       370       362       363       364       364       360       373       370       363       360       358       363       360       371
dram[1]:        380       373       369       360       363       363       359       359       363       364       364       361       359       359       367       368
dram[2]:        384       361       359       363       367       361       358       367       362       362       372       361       360       361       365       361
dram[3]:        383       362       360       364       361       371       361       361       363       360       365       363       358       358       365       370
dram[4]:        369       359       367       359       371       364       359       363       361       361       370       364       365       366       370       362
dram[5]:        377       362       368       359       369       362       360       363       364       361       363       358       361       359       359       361
dram[6]:        376       369       364       359       360       366       374       360       365       362       364       362       361       360       361       360
dram[7]:        370       364       369       359       363       361       361       359       357       362       360       361       363       365       360       362
dram[8]:        369       370       359       359       362       360       362       364       362       364       360       359       360       362       359       362
dram[9]:        365       372       364       364       361       369       364       360       362       363       360       359       360       363       365       360
dram[10]:        370       370       359       361       360       365       366       361       363       371       362       359       359       365       361       363
dram[11]:        372       365       359       366       361       360       361       359       367       365       364       361       360       359       358       363
dram[12]:        371       379       363       360       360       363       359       369       357       361       366       359       363       360       363       364
dram[13]:        366       378       362       359       363       363       360       362       360       364       361       361       359       361       359       359
dram[14]:        371       376       361       360       364       364       360       360       360       361       359       365       357       361       361       360
dram[15]:        373       378       363       360       361       369       359       360       359       358       360       359       359       359       359       360
dram[16]:        362       383       360       362       361       363       359       360       359       358       359       360       360       364       361       359
dram[17]:        364       378       358       360       360       366       365       363       360       360       359       360       360       362       360       360
dram[18]:        377       379       361       374       362       360       357       359       361       359       359       361       358       363       360       374
dram[19]:        360       378       368       360       360       363       360       362       359       363       359       362       359       364       363       416
dram[20]:        367       379       359       361       363       366       360       362       359       364       363       378       359       363       363       385
dram[21]:        364       378       361       365       361       365       367       363       364       362       358       360       360       360       360       388
dram[22]:        359       376       365       369       363       361       362       358       360       375       361       364       360       364       360       360
dram[23]:        363       374       360       363       360       364       360       366       359       358       363       361       360       364       360       363
Memory Partition 0: 
Cache L2_bank_000:
MSHR contents

Cache L2_bank_001:
MSHR contents

In Dram Latency Queue (total = 0): 
DRAM[0]: 16 bks, busW=16 BL=2 CL=12, tRRD=3 tCCD=1, tRCD=12 tRAS=28 tRP=12 tRC=40
n_cmd=502166 n_nop=468736 n_act=342 n_pre=326 n_ref_event=0 n_req=32800 n_rd=32800 n_rd_L2_A=0 n_write=0 n_wr_bk=0 bw_util=0.06532
n_activity=136703 dram_eff=0.2399
bk0: 2096a 500169i bk1: 2096a 500135i bk2: 2016a 500249i bk3: 2016a 500223i bk4: 2112a 500159i bk5: 2112a 500123i bk6: 2112a 500159i bk7: 2112a 500129i bk8: 2016a 500264i bk9: 2016a 500233i bk10: 2016a 500248i bk11: 2016a 500223i bk12: 2016a 500216i bk13: 2016a 500180i bk14: 2016a 500236i bk15: 2016a 500202i 

------------------------------------------------------------------------

Row_Buffer_Locality = 0.989573
Row_Buffer_Locality_read = 0.989573
Row_Buffer_Locality_write = -nan
Bank_Level_Parallism = 1.029686
Bank_Level_Parallism_Col = 1.022755
Bank_Level_Parallism_Ready = 1.010305
write_to_read_ratio_blp_rw_average = 0.000000
GrpLevelPara = 1.022602 

BW Util details:
bwutil = 0.065317 
total_CMD = 502166 
util_bw = 32800 
Wasted_Col = 26214 
Wasted_Row = 3440 
Idle = 439712 

BW Util Bottlenecks: 
RCDc_limit = 3935 
RCDWRc_limit = 0 
WTRc_limit = 0 
RTWc_limit = 0 
CCDLc_limit = 22476 
rwq = 0 
CCDLc_limit_alone = 22476 
WTRc_limit_alone = 0 
RTWc_limit_alone = 0 

Commands details: 
total_CMD = 502166 
n_nop = 468736 
Read = 32800 
Write = 0 
L2_Alloc = 0 
L2_WB = 0 
n_act = 342 
n_pre = 326 
n_ref = 0 
n_req = 32800 
total_req = 32800 

Dual Bus Interface Util: 
issued_total_row = 668 
issued_total_col = 32800 
Row_Bus_Util =  0.001330 
CoL_Bus_Util = 0.065317 
Either_Row_CoL_Bus_Util = 0.066572 
Issued_on_Two_Bus_Simul_Util = 0.000076 
issued_two_Eff = 0.001137 
queue_avg = 0.133480 


dram_util_bins: 0 0 0 0 0 0 0 0 0 0
dram_eff_bins: 0 0 0 0 0 0 0 0 0 0
mrqq: max=17 avg=0.13348
Memory Partition 1: 
Cache L2_bank_002:
MSHR contents

Cache L2_bank_003:
MSHR contents

In Dram Latency Queue (total = 0): 
DRAM[1]: 16 bks, busW=16 BL=2 CL=12, tRRD=3 tCCD=1, tRCD=12 tRAS=28 tRP=12 tRC=40
n_cmd=502166 n_nop=468736 n_act=342 n_pre=326 n_ref_event=0 n_req=32800 n_rd=32800 n_rd_L2_A=0 n_write=0 n_wr_bk=0 bw_util=0.06532
n_activity=136686 dram_eff=0.24
bk0: 2096a 500158i bk1: 2096a 500113i bk2: 2016a 500249i bk3: 2016a 500203i bk4: 2112a 500141i bk5: 2112a 500116i bk6: 2112a 500162i bk7: 2112a 500127i bk8: 2016a 500269i bk9: 2016a 500241i bk10: 2016a 500220i bk11: 2016a 500212i bk12: 2016a 500230i bk13: 2016a 500226i bk14: 2016a 500240i bk15: 2016a 500212i 

------------------------------------------------------------------------

Row_Buffer_Locality = 0.989573
Row_Buffer_Locality_read = 0.989573
Row_Buffer_Locality_write = -nan
Bank_Level_Parallism = 1.030233
Bank_Level_Parallism_Col = 1.023883
Bank_Level_Parallism_Ready = 1.010640
write_to_read_ratio_blp_rw_average = 0.000000
GrpLevelPara = 1.023798 

BW Util details:
bwutil = 0.065317 
total_CMD = 502166 
util_bw = 32800 
Wasted_Col = 26162 
Wasted_Row = 3487 
Idle = 439717 

BW Util Bottlenecks: 
RCDc_limit = 3922 
RCDWRc_limit = 0 
WTRc_limit = 0 
RTWc_limit = 0 
CCDLc_limit = 22437 
rwq = 0 
CCDLc_limit_alone = 22437 
[...]

Commands details: 
total_CMD = 1097713 
n_nop = 1036309 
Read = 49256 
Write = 0 
L2_Alloc = 0 
L2_WB = 9932 
n_act = 1727 
n_pre = 1711 
n_ref = 0 
n_req = 51832 
total_req = 59188 

Dual Bus Interface Util: 
issued_total_row = 3438 
issued_total_col = 59188 
Row_Bus_Util =  0.003132 
CoL_Bus_Util = 0.053919 
Either_Row_CoL_Bus_Util = 0.055938 
Issued_on_Two_Bus_Simul_Util = 0.001113 
issued_two_Eff = 0.019901 
queue_avg = 0.630410 


dram_util_bins: 0 0 0 0 0 0 0 0 0 0
dram_eff_bins: 0 0 0 0 0 0 0 0 0 0
mrqq: max=64 avg=0.63041
Memory Partition 21: 
Cache L2_bank_042:
MSHR contents

Cache L2_bank_043:
MSHR contents

In Dram Latency Queue (total = 0): 
DRAM[21]: 16 bks, busW=16 BL=2 CL=12, tRRD=3 tCCD=1, tRCD=12 tRAS=28 tRP=12 tRC=40
n_cmd=1097713 n_nop=1036052 n_act=1753 n_pre=1737 n_ref_event=0 n_req=51832 n_rd=49256 n_rd_L2_A=0 n_write=0 n_wr_bk=10168 bw_util=0.05413
n_activity=208097 dram_eff=0.2856
bk0: 3192a 1085922i bk1: 3248a 1085461i bk2: 2976a 1086242i bk3: 2976a 1085780i bk4: 3072a 1085264i bk5: 3072a 1084858i bk6: 3264a 1085200i bk7: 3264a 1084905i bk8: 3072a 1085577i bk9: 3072a 1085529i bk10: 2976a 1085891i bk11: 2976a 1085836i bk12: 2976a 1085681i bk13: 2976a 1085293i bk14: 3072a 1085719i bk15: 3072a 1084959i 

------------------------------------------------------------------------

Row_Buffer_Locality = 0.969034
Row_Buffer_Locality_read = 0.976510
Row_Buffer_Locality_write = 0.824154
Bank_Level_Parallism = 2.278746
Bank_Level_Parallism_Col = 2.216529
Bank_Level_Parallism_Ready = 2.245423
write_to_read_ratio_blp_rw_average = 0.111882
GrpLevelPara = 1.426292 

BW Util details:
bwutil = 0.054134 
total_CMD = 1097713 
util_bw = 59424 
Wasted_Col = 38829 
Wasted_Row = 10179 
Idle = 989281 

BW Util Bottlenecks: 
RCDc_limit = 11335 
RCDWRc_limit = 335 
WTRc_limit = 505 
RTWc_limit = 769 
CCDLc_limit = 28268 
rwq = 0 
CCDLc_limit_alone = 28182 
WTRc_limit_alone = 477 
RTWc_limit_alone = 711 

Commands details: 
total_CMD = 1097713 
n_nop = 1036052 
Read = 49256 
Write = 0 
L2_Alloc = 0 
L2_WB = 10168 
n_act = 1753 
n_pre = 1737 
n_ref = 0 
n_req = 51832 
total_req = 59424 

Dual Bus Interface Util: 
issued_total_row = 3490 
issued_total_col = 59424 
Row_Bus_Util =  0.003179 
CoL_Bus_Util = 0.054134 
Either_Row_CoL_Bus_Util = 0.056172 
Issued_on_Two_Bus_Simul_Util = 0.001141 
issued_two_Eff = 0.020321 
queue_avg = 0.656480 


dram_util_bins: 0 0 0 0 0 0 0 0 0 0
dram_eff_bins: 0 0 0 0 0 0 0 0 0 0
mrqq: max=64 avg=0.65648
Memory Partition 22: 
Cache L2_bank_044:
MSHR contents

Cache L2_bank_045:
MSHR contents

In Dram Latency Queue (total = 0): 
DRAM[22]: 16 bks, busW=16 BL=2 CL=12, tRRD=3 tCCD=1, tRCD=12 tRAS=28 tRP=12 tRC=40
n_cmd=1097713 n_nop=1036272 n_act=1752 n_pre=1736 n_ref_event=0 n_req=51832 n_rd=49257 n_rd_L2_A=0 n_write=0 n_wr_bk=9948 bw_util=0.05393
n_activity=207588 dram_eff=0.2852
bk0: 3193a 1086174i bk1: 3248a 1085841i bk2: 2976a 1085935i bk3: 2976a 1085855i bk4: 3072a 1085528i bk5: 3072a 1085399i bk6: 3264a 1086138i bk7: 3264a 1085134i bk8: 3072a 1086087i bk9: 3072a 1085738i bk10: 2976a 1085844i bk11: 2976a 1085292i bk12: 2976a 1086488i bk13: 2976a 1086033i bk14: 3072a 1086074i bk15: 3072a 1085820i 

------------------------------------------------------------------------

Row_Buffer_Locality = 0.969001
Row_Buffer_Locality_read = 0.976349
Row_Buffer_Locality_write = 0.823482
Bank_Level_Parallism = 2.238858
Bank_Level_Parallism_Col = 2.172819
Bank_Level_Parallism_Ready = 2.199882
write_to_read_ratio_blp_rw_average = 0.103673
GrpLevelPara = 1.421349 

BW Util details:
bwutil = 0.053935 
total_CMD = 1097713 
util_bw = 59205 
Wasted_Col = 38589 
Wasted_Row = 10195 
Idle = 989724 

BW Util Bottlenecks: 
RCDc_limit = 11368 
RCDWRc_limit = 277 
WTRc_limit = 522 
RTWc_limit = 524 
CCDLc_limit = 28156 
rwq = 0 
CCDLc_limit_alone = 28106 
WTRc_limit_alone = 478 
RTWc_limit_alone = 518 

Commands details: 
total_CMD = 1097713 
n_nop = 1036272 
Read = 49257 
Write = 0 
L2_Alloc = 0 
L2_WB = 9948 
n_act = 1752 
n_pre = 1736 
n_ref = 0 
n_req = 51832 
total_req = 59205 

Dual Bus Interface Util: 
issued_total_row = 3488 
issued_total_col = 59205 
Row_Bus_Util =  0.003178 
CoL_Bus_Util = 0.053935 
Either_Row_CoL_Bus_Util = 0.055972 
Issued_on_Two_Bus_Simul_Util = 0.001141 
issued_two_Eff = 0.020377 
queue_avg = 0.620390 


dram_util_bins: 0 0 0 0 0 0 0 0 0 0
dram_eff_bins: 0 0 0 0 0 0 0 0 0 0
mrqq: max=64 avg=0.62039
Memory Partition 23: 
Cache L2_bank_046:
MSHR contents

Cache L2_bank_047:
MSHR contents

In Dram Latency Queue (total = 0): 
DRAM[23]: 16 bks, busW=16 BL=2 CL=12, tRRD=3 tCCD=1, tRCD=12 tRAS=28 tRP=12 tRC=40
n_cmd=1097713 n_nop=1036184 n_act=1745 n_pre=1729 n_ref_event=0 n_req=51842 n_rd=49264 n_rd_L2_A=0 n_write=0 n_wr_bk=10012 bw_util=0.054
n_activity=207438 dram_eff=0.2858
bk0: 3200a 1086247i bk1: 3248a 1085831i bk2: 2976a 1086215i bk3: 2976a 1086160i bk4: 3072a 1085513i bk5: 3072a 1085180i bk6: 3264a 1084863i bk7: 3264a 1085382i bk8: 3072a 1086182i bk9: 3072a 1085832i bk10: 2976a 1085385i bk11: 2976a 1085054i bk12: 2976a 1086074i bk13: 2976a 1086139i bk14: 3072a 1086339i bk15: 3072a 1086378i 

------------------------------------------------------------------------

Row_Buffer_Locality = 0.969189
Row_Buffer_Locality_read = 0.976393
Row_Buffer_Locality_write = 0.827407
Bank_Level_Parallism = 2.237926
Bank_Level_Parallism_Col = 2.173079
Bank_Level_Parallism_Ready = 2.189807
write_to_read_ratio_blp_rw_average = 0.107852
GrpLevelPara = 1.420930 

BW Util details:
bwutil = 0.054000 
total_CMD = 1097713 
util_bw = 59276 
Wasted_Col = 38835 
Wasted_Row = 10204 
Idle = 989398 

BW Util Bottlenecks: 
RCDc_limit = 11433 
RCDWRc_limit = 260 
WTRc_limit = 509 
RTWc_limit = 746 
CCDLc_limit = 28200 
rwq = 0 
CCDLc_limit_alone = 28139 
WTRc_limit_alone = 484 
RTWc_limit_alone = 710 

Commands details: 
total_CMD = 1097713 
n_nop = 1036184 
Read = 49264 
Write = 0 
L2_Alloc = 0 
L2_WB = 10012 
n_act = 1745 
n_pre = 1729 
n_ref = 0 
n_req = 51842 
total_req = 59276 

Dual Bus Interface Util: 
issued_total_row = 3474 
issued_total_col = 59276 
Row_Bus_Util =  0.003165 
CoL_Bus_Util = 0.054000 
Either_Row_CoL_Bus_Util = 0.056052 
Issued_on_Two_Bus_Simul_Util = 0.001112 
issued_two_Eff = 0.019844 
queue_avg = 0.660624 


dram_util_bins: 0 0 0 0 0 0 0 0 0 0
dram_eff_bins: 0 0 0 0 0 0 0 0 0 0
mrqq: max=64 avg=0.660624

========= L2 cache stats =========
L2_cache_bank[0]: Access = 94109, Miss = 49488, Miss_rate = 0.526, Pending_hits = 2831, Reservation_fails = 3
L2_cache_bank[1]: Access = 178614, Miss = 48944, Miss_rate = 0.274, Pending_hits = 2799, Reservation_fails = 159
L2_cache_bank[2]: Access = 94070, Miss = 49488, Miss_rate = 0.526, Pending_hits = 2784, Reservation_fails = 5
L2_cache_bank[3]: Access = 178696, Miss = 48944, Miss_rate = 0.274, Pending_hits = 2791, Reservation_fails = 210
L2_cache_bank[4]: Access = 94149, Miss = 49488, Miss_rate = 0.526, Pending_hits = 2798, Reservation_fails = 0
L2_cache_bank[5]: Access = 200017, Miss = 48952, Miss_rate = 0.245, Pending_hits = 2796, Reservation_fails = 153
L2_cache_bank[6]: Access = 94139, Miss = 49488, Miss_rate = 0.526, Pending_hits = 2818, Reservation_fails = 23
L2_cache_bank[7]: Access = 198036, Miss = 48953, Miss_rate = 0.247, Pending_hits = 2812, Reservation_fails = 150
L2_cache_bank[8]: Access = 94133, Miss = 49488, Miss_rate = 0.526, Pending_hits = 2787, Reservation_fails = 11
L2_cache_bank[9]: Access = 221358, Miss = 48960, Miss_rate = 0.221, Pending_hits = 2854, Reservation_fails = 182
L2_cache_bank[10]: Access = 94103, Miss = 49488, Miss_rate = 0.526, Pending_hits = 2837, Reservation_fails = 18
L2_cache_bank[11]: Access = 221379, Miss = 48960, Miss_rate = 0.221, Pending_hits = 2800, Reservation_fails = 176
L2_cache_bank[12]: Access = 94127, Miss = 49488, Miss_rate = 0.526, Pending_hits = 2818, Reservation_fails = 0
L2_cache_bank[13]: Access = 202225, Miss = 48953, Miss_rate = 0.242, Pending_hits = 2825, Reservation_fails = 213
L2_cache_bank[14]: Access = 94160, Miss = 49488, Miss_rate = 0.526, Pending_hits = 2875, Reservation_fails = 0
L2_cache_bank[15]: Access = 221439, Miss = 48960, Miss_rate = 0.221, Pending_hits = 2840, Reservation_fails = 173
L2_cache_bank[16]: Access = 47075, Miss = 24744, Miss_rate = 0.526, Pending_hits = 1221, Reservation_fails = 0
L2_cache_bank[17]: Access = 46245, Miss = 24312, Miss_rate = 0.526, Pending_hits = 1188, Reservation_fails = 0
L2_cache_bank[18]: Access = 47098, Miss = 24744, Miss_rate = 0.525, Pending_hits = 1176, Reservation_fails = 0
L2_cache_bank[19]: Access = 46228, Miss = 24312, Miss_rate = 0.526, Pending_hits = 1165, Reservation_fails = 0
L2_cache_bank[20]: Access = 47051, Miss = 24744, Miss_rate = 0.526, Pending_hits = 1144, Reservation_fails = 0
L2_cache_bank[21]: Access = 46269, Miss = 24312, Miss_rate = 0.525, Pending_hits = 1188, Reservation_fails = 0
L2_cache_bank[22]: Access = 47051, Miss = 24744, Miss_rate = 0.526, Pending_hits = 1184, Reservation_fails = 0
L2_cache_bank[23]: Access = 46281, Miss = 24312, Miss_rate = 0.525, Pending_hits = 1203, Reservation_fails = 0
L2_cache_bank[24]: Access = 47063, Miss = 24744, Miss_rate = 0.526, Pending_hits = 1216, Reservation_fails = 0
L2_cache_bank[25]: Access = 46249, Miss = 24312, Miss_rate = 0.526, Pending_hits = 1173, Reservation_fails = 0
L2_cache_bank[26]: Access = 47069, Miss = 24744, Miss_rate = 0.526, Pending_hits = 1230, Reservation_fails = 0
L2_cache_bank[27]: Access = 46247, Miss = 24312, Miss_rate = 0.526, Pending_hits = 1189, Reservation_fails = 0
L2_cache_bank[28]: Access = 47081, Miss = 24744, Miss_rate = 0.526, Pending_hits = 1196, Reservation_fails = 0
L2_cache_bank[29]: Access = 46257, Miss = 24312, Miss_rate = 0.526, Pending_hits = 1210, Reservation_fails = 0
L2_cache_bank[30]: Access = 47083, Miss = 24744, Miss_rate = 0.526, Pending_hits = 1174, Reservation_fails = 0
L2_cache_bank[31]: Access = 46246, Miss = 24312, Miss_rate = 0.526, Pending_hits = 1221, Reservation_fails = 0
L2_cache_bank[32]: Access = 47052, Miss = 24744, Miss_rate = 0.526, Pending_hits = 1172, Reservation_fails = 0
L2_cache_bank[33]: Access = 110699, Miss = 24531, Miss_rate = 0.222, Pending_hits = 1184, Reservation_fails = 114
L2_cache_bank[34]: Access = 47076, Miss = 24744, Miss_rate = 0.526, Pending_hits = 1148, Reservation_fails = 0
L2_cache_bank[35]: Access = 110843, Miss = 24528, Miss_rate = 0.221, Pending_hits = 1142, Reservation_fails = 124
L2_cache_bank[36]: Access = 47054, Miss = 24744, Miss_rate = 0.526, Pending_hits = 1127, Reservation_fails = 0
L2_cache_bank[37]: Access = 110771, Miss = 24528, Miss_rate = 0.221, Pending_hits = 1185, Reservation_fails = 123
L2_cache_bank[38]: Access = 47036, Miss = 24744, Miss_rate = 0.526, Pending_hits = 1167, Reservation_fails = 0
L2_cache_bank[39]: Access = 110867, Miss = 24528, Miss_rate = 0.221, Pending_hits = 1143, Reservation_fails = 124
L2_cache_bank[40]: Access = 47058, Miss = 24744, Miss_rate = 0.526, Pending_hits = 1142, Reservation_fails = 0
L2_cache_bank[41]: Access = 110780, Miss = 24528, Miss_rate = 0.221, Pending_hits = 1142, Reservation_fails = 113
L2_cache_bank[42]: Access = 47081, Miss = 24744, Miss_rate = 0.526, Pending_hits = 1197, Reservation_fails = 0
L2_cache_bank[43]: Access = 110876, Miss = 24528, Miss_rate = 0.221, Pending_hits = 1196, Reservation_fails = 147
L2_cache_bank[44]: Access = 47058, Miss = 24744, Miss_rate = 0.526, Pending_hits = 1163, Reservation_fails = 0
L2_cache_bank[45]: Access = 91537, Miss = 24522, Miss_rate = 0.268, Pending_hits = 1151, Reservation_fails = 130
L2_cache_bank[46]: Access = 47041, Miss = 24744, Miss_rate = 0.526, Pending_hits = 1150, Reservation_fails = 0
L2_cache_bank[47]: Access = 108776, Miss = 24528, Miss_rate = 0.225, Pending_hits = 1154, Reservation_fails = 124
L2_total_cache_accesses = 4362952
L2_total_cache_misses = 1574151
L2_total_cache_miss_rate = 0.3608
L2_total_cache_pending_hits = 82706
L2_total_cache_reservation_fails = 2475
L2_total_cache_breakdown:
	L2_cache_stats_breakdown[GLOBAL_ACC_R][HIT] = 115110
	L2_cache_stats_breakdown[GLOBAL_ACC_R][HIT_RESERVED] = 55574
	L2_cache_stats_breakdown[GLOBAL_ACC_R][MISS] = 131202
	L2_cache_stats_breakdown[GLOBAL_ACC_R][RESERVATION_FAIL] = 2475
	L2_cache_stats_breakdown[GLOBAL_ACC_R][SECTOR_MISS] = 393602
	L2_cache_stats_breakdown[GLOBAL_ACC_R][MSHR_HIT] = 55574
	L2_cache_stats_breakdown[LOCAL_ACC_R][HIT] = 0
	L2_cache_stats_breakdown[LOCAL_ACC_R][HIT_RESERVED] = 0
	L2_cache_stats_breakdown[LOCAL_ACC_R][MISS] = 0
	L2_cache_stats_breakdown[LOCAL_ACC_R][RESERVATION_FAIL] = 0
	L2_cache_stats_breakdown[LOCAL_ACC_R][SECTOR_MISS] = 0
	L2_cache_stats_breakdown[LOCAL_ACC_R][MSHR_HIT] = 0
	L2_cache_stats_breakdown[CONST_ACC_R][HIT] = 0
	L2_cache_stats_breakdown[CONST_ACC_R][HIT_RESERVED] = 0
	L2_cache_stats_breakdown[CONST_ACC_R][MISS] = 0
	L2_cache_stats_breakdown[CONST_ACC_R][RESERVATION_FAIL] = 0
	L2_cache_stats_breakdown[CONST_ACC_R][SECTOR_MISS] = 0
	L2_cache_stats_breakdown[CONST_ACC_R][MSHR_HIT] = 0
	L2_cache_stats_breakdown[TEXTURE_ACC_R][HIT] = 0
	L2_cache_stats_breakdown[TEXTURE_ACC_R][HIT_RESERVED] = 0
	L2_cache_stats_breakdown[TEXTURE_ACC_R][MISS] = 0
	L2_cache_stats_breakdown[TEXTURE_ACC_R][RESERVATION_FAIL] = 0
	L2_cache_stats_breakdown[TEXTURE_ACC_R][SECTOR_MISS] = 0
	L2_cache_stats_breakdown[TEXTURE_ACC_R][MSHR_HIT] = 0
	L2_cache_stats_breakdown[GLOBAL_ACC_W][HIT] = 1277952
	L2_cache_stats_breakdown[GLOBAL_ACC_W][HIT_RESERVED] = 0
	L2_cache_stats_breakdown[GLOBAL_ACC_W][MISS] = 0
	L2_cache_stats_breakdown[GLOBAL_ACC_W][RESERVATION_FAIL] = 0
	L2_cache_stats_breakdown[GLOBAL_ACC_W][SECTOR_MISS] = 0
	L2_cache_stats_breakdown[GLOBAL_ACC_W][MSHR_HIT] = 0
	L2_cache_stats_breakdown[LOCAL_ACC_W][HIT] = 0
	L2_cache_stats_breakdown[LOCAL_ACC_W][HIT_RESERVED] = 0
	L2_cache_stats_breakdown[LOCAL_ACC_W][MISS] = 0
	L2_cache_stats_breakdown[LOCAL_ACC_W][RESERVATION_FAIL] = 0
	L2_cache_stats_breakdown[LOCAL_ACC_W][SECTOR_MISS] = 0
	L2_cache_stats_breakdown[LOCAL_ACC_W][MSHR_HIT] = 0
	L2_cache_stats_breakdown[L1_WRBK_ACC][HIT] = 0
	L2_cache_stats_breakdown[L1_WRBK_ACC][HIT_RESERVED] = 0
	L2_cache_stats_breakdown[L1_WRBK_ACC][MISS] = 0
	L2_cache_stats_breakdown[L1_WRBK_ACC][RESERVATION_FAIL] = 0
	L2_cache_stats_breakdown[L1_WRBK_ACC][SECTOR_MISS] = 0
	L2_cache_stats_breakdown[L1_WRBK_ACC][MSHR_HIT] = 0
	L2_cache_stats_breakdown[L2_WRBK_ACC][HIT] = 0
	L2_cache_stats_breakdown[L2_WRBK_ACC][HIT_RESERVED] = 0
	L2_cache_stats_breakdown[L2_WRBK_ACC][MISS] = 0
	L2_cache_stats_breakdown[L2_WRBK_ACC][RESERVATION_FAIL] = 0
	L2_cache_stats_breakdown[L2_WRBK_ACC][SECTOR_MISS] = 0
	L2_cache_stats_breakdown[L2_WRBK_ACC][MSHR_HIT] = 0
	L2_cache_stats_breakdown[INST_ACC_R][HIT] = 0
	L2_cache_stats_breakdown[INST_ACC_R][HIT_RESERVED] = 0
	L2_cache_stats_breakdown[INST_ACC_R][MISS] = 0
	L2_cache_stats_breakdown[INST_ACC_R][RESERVATION_FAIL] = 0
	L2_cache_stats_breakdown[INST_ACC_R][SECTOR_MISS] = 0
	L2_cache_stats_breakdown[INST_ACC_R][MSHR_HIT] = 0
	L2_cache_stats_breakdown[L1_WR_ALLOC_R][HIT] = 0
	L2_cache_stats_breakdown[L1_WR_ALLOC_R][HIT_RESERVED] = 0
	L2_cache_stats_breakdown[L1_WR_ALLOC_R][MISS] = 0
	L2_cache_stats_breakdown[L1_WR_ALLOC_R][RESERVATION_FAIL] = 0
	L2_cache_stats_breakdown[L1_WR_ALLOC_R][SECTOR_MISS] = 0
	L2_cache_stats_breakdown[L1_WR_ALLOC_R][MSHR_HIT] = 0
	L2_cache_stats_breakdown[L2_WR_ALLOC_R][HIT] = 0
	L2_cache_stats_breakdown[L2_WR_ALLOC_R][HIT_RESERVED] = 0
	L2_cache_stats_breakdown[L2_WR_ALLOC_R][MISS] = 0
	L2_cache_stats_breakdown[L2_WR_ALLOC_R][RESERVATION_FAIL] = 0
	L2_cache_stats_breakdown[L2_WR_ALLOC_R][SECTOR_MISS] = 0
	L2_cache_stats_breakdown[L2_WR_ALLOC_R][MSHR_HIT] = 0
	L2_cache_stats_breakdown[GLOBAL_ACC_R][TOTAL_ACCESS] = 695488
	L2_cache_stats_breakdown[GLOBAL_ACC_W][TOTAL_ACCESS] = 1277952
L2_total_cache_reservation_fail_breakdown:
	L2_cache_stats_fail_breakdown[GLOBAL_ACC_R][MSHR_ENRTY_FAIL] = 60
	L2_cache_stats_fail_breakdown[GLOBAL_ACC_R][MSHR_MERGE_ENRTY_FAIL] = 2415
L2_cache_data_port_util = 0.036
L2_cache_fill_port_util = 0.021

icnt_total_pkts_mem_to_simt=4362952
icnt_total_pkts_simt_to_mem=4362952
LD_mem_lat_dist  0 0 0 0 0 0 0 0 0 0 0 0 0 0 0 0 0 0 0 0 0 0 0 0 0 0 0
ST_mem_lat_dist  0 0 0 0 0 0 0 0 0 0 0 0 0 0 0 0 0 0 0 0 0 0 0 0 0 0 0
----------------------------Interconnect-DETAILS--------------------------------
Req_Network_injected_packets_num = 4362952
Req_Network_cycles = 1549714
Req_Network_injected_packets_per_cycle =       2.8153 
Req_Network_conflicts_per_cycle =       1.6653
Req_Network_conflicts_per_cycle_util =       1.9213
Req_Bank_Level_Parallism =       3.2482
Req_Network_in_buffer_full_per_cycle =       0.3495
Req_Network_in_buffer_avg_util =      24.2192
Req_Network_out_buffer_full_per_cycle =       0.0180
Req_Network_out_buffer_avg_util =       2.3229

Reply_Network_injected_packets_num = 4362952
Reply_Network_cycles = 1549714
Reply_Network_injected_packets_per_cycle =        2.8153
Reply_Network_conflicts_per_cycle =        1.2338
Reply_Network_conflicts_per_cycle_util =       1.4627
Reply_Bank_Level_Parallism =       3.3377
Reply_Network_in_buffer_full_per_cycle =       0.0013
Reply_Network_in_buffer_avg_util =       2.0368
Reply_Network_out_buffer_full_per_cycle =       0.0000
Reply_Network_out_buffer_avg_util =       0.0704
----------------------------END-of-Interconnect-DETAILS-------------------------


gpgpu_simulation_time = 0 days, 0 hrs, 33 min, 45 sec (2025 sec)
gpgpu_simulation_rate = 93506 (inst/sec)
gpgpu_simulation_rate = 765 (cycle/sec)
gpgpu_silicon_slowdown = 1568627x
GPGPU-Sim: synchronize waiting for inactive GPU simulation
GPGPU-Sim API: Stream Manager State
GPGPU-Sim: detected inactive GPU simulation thread
GPGPU-Sim PTX: Setting up arguments for 8 bytes starting at 0x7fff8a0526d8..
GPGPU-Sim PTX: Setting up arguments for 8 bytes starting at 0x7fff8a0526d0..

GPGPU-Sim PTX: cudaLaunch for 0x0x58bf06002385 (mode=performance simulation) on stream 0
GPGPU-Sim PTX: finding reconvergence points for '_Z11corr_kernelPfS_'...
GPGPU-Sim PTX: Finding dominators for '_Z11corr_kernelPfS_'...
GPGPU-Sim PTX: Finding immediate dominators for '_Z11corr_kernelPfS_'...
GPGPU-Sim PTX: Finding postdominators for '_Z11corr_kernelPfS_'...
GPGPU-Sim PTX: Finding immediate postdominators for '_Z11corr_kernelPfS_'...
GPGPU-Sim PTX: pre-decoding instructions for '_Z11corr_kernelPfS_'...
GPGPU-Sim PTX: reconvergence points for _Z11corr_kernelPfS_...
GPGPU-Sim PTX:  1 (potential) branch divergence @  PC=0x600 (CORR.1.sm_30.ptx:278) @%p1 bra BB3_6;
GPGPU-Sim PTX:    immediate post dominator      @  PC=0x828 (CORR.1.sm_30.ptx:356) ret;
GPGPU-Sim PTX:  2 (potential) branch divergence @  PC=0x640 (CORR.1.sm_30.ptx:287) @%p2 bra BB3_6;
GPGPU-Sim PTX:    immediate post dominator      @  PC=0x828 (CORR.1.sm_30.ptx:356) ret;
GPGPU-Sim PTX:  3 (potential) branch divergence @  PC=0x7e8 (CORR.1.sm_30.ptx:345) @%p3 bra BB3_4;
GPGPU-Sim PTX:    immediate post dominator      @  PC=0x7f0 (CORR.1.sm_30.ptx:347) mad.lo.s32 %r23, %r24, 2049, %r5;
GPGPU-Sim PTX:  4 (potential) branch divergence @  PC=0x820 (CORR.1.sm_30.ptx:353) @%p4 bra BB3_3;
GPGPU-Sim PTX:    immediate post dominator      @  PC=0x828 (CORR.1.sm_30.ptx:356) ret;
GPGPU-Sim PTX: ... end of reconvergence points for _Z11corr_kernelPfS_
GPGPU-Sim PTX: ... done pre-decoding instructions for '_Z11corr_kernelPfS_'.
GPGPU-Sim PTX: pushing kernel '_Z11corr_kernelPfS_' to stream 0, gridDim= (8,1,1) blockDim = (256,1,1) 
GPGPU-Sim uArch: Shader 31 bind to kernel 4 '_Z11corr_kernelPfS_'
GPGPU-Sim uArch: CTA/core = 8, limited by: threads
GPGPU-Sim: Reconfigure L1 cache to 128KB
GPGPU-Sim uArch: Shader 32 bind to kernel 4 '_Z11corr_kernelPfS_'
GPGPU-Sim uArch: Shader 34 bind to kernel 4 '_Z11corr_kernelPfS_'
GPGPU-Sim uArch: Shader 37 bind to kernel 4 '_Z11corr_kernelPfS_'
GPGPU-Sim uArch: Shader 38 bind to kernel 4 '_Z11corr_kernelPfS_'
GPGPU-Sim uArch: Shader 41 bind to kernel 4 '_Z11corr_kernelPfS_'
GPGPU-Sim uArch: Shader 43 bind to kernel 4 '_Z11corr_kernelPfS_'
GPGPU-Sim uArch: Shader 44 bind to kernel 4 '_Z11corr_kernelPfS_'
