self exe links to: /workspace/gpgpu-sim_simulations/benchmarks/src/cuda/bin/release/MVT
self exe links to: /workspace/gpgpu-sim_simulations/benchmarks/src/cuda/bin/release/MVT
10.1


        *** GPGPU-Sim Simulator Version 4.2.0  [build gpgpu-sim_git-commit-a4ce3fe_modified_0.0] ***


GPGPU-Sim PTX: simulation mode 0 (can change with PTX_SIM_MODE_FUNC environment variable:
               1=functional simulation only, 0=detailed performance simulator)
GPGPU-Sim PTX: overriding embedded ptx with ptx file (PTX_SIM_USE_PTX_FILE is set)
GPGPU-Sim: Configuration options:

-save_embedded_ptx                      0 # saves ptx files embedded in binary as <n>.ptx
-keep                                   0 # keep intermediate files created by GPGPU-Sim when interfacing with external programs
-gpgpu_ptx_save_converted_ptxplus                    0 # Saved converted ptxplus to a file
-gpgpu_occupancy_sm_number                   70 # The SM number to pass to ptxas when getting register usage for computing GPU occupancy. This parameter is required in the config.
-ptx_opcode_latency_int      4,13,4,5,145,32 # Opcode latencies for integers <ADD,MAX,MUL,MAD,DIV,SHFL>Default 1,1,19,25,145,32
-ptx_opcode_latency_fp          4,13,4,5,39 # Opcode latencies for single precision floating points <ADD,MAX,MUL,MAD,DIV>Default 1,1,1,1,30
-ptx_opcode_latency_dp         8,19,8,8,330 # Opcode latencies for double precision floating points <ADD,MAX,MUL,MAD,DIV>Default 8,8,8,8,335
-ptx_opcode_latency_sfu                  100 # Opcode latencies for SFU instructionsDefault 8
-ptx_opcode_latency_tesnor                   64 # Opcode latencies for Tensor instructionsDefault 64
-ptx_opcode_initiation_int          2,2,2,2,8,4 # Opcode initiation intervals for integers <ADD,MAX,MUL,MAD,DIV,SHFL>Default 1,1,4,4,32,4
-ptx_opcode_initiation_fp            2,2,2,2,4 # Opcode initiation intervals for single precision floating points <ADD,MAX,MUL,MAD,DIV>Default 1,1,1,1,5
-ptx_opcode_initiation_dp          4,4,4,4,130 # Opcode initiation intervals for double precision floating points <ADD,MAX,MUL,MAD,DIV>Default 8,8,8,8,130
-ptx_opcode_initiation_sfu                    8 # Opcode initiation intervals for sfu instructionsDefault 8
-ptx_opcode_initiation_tensor                   64 # Opcode initiation intervals for tensor instructionsDefault 64
-cdp_latency         7200,8000,100,12000,1600 # CDP API latency <cudaStreamCreateWithFlags, cudaGetParameterBufferV2_init_perWarp, cudaGetParameterBufferV2_perKernel, cudaLaunchDeviceV2_init_perWarp, cudaLaunchDevicV2_perKernel>Default 7200,8000,100,12000,1600
-network_mode                           2 # Interconnection network mode
-inter_config_file                   mesh # Interconnection network config file
-icnt_in_buffer_limit                  512 # in_buffer_limit
-icnt_out_buffer_limit                  512 # out_buffer_limit
-icnt_subnets                           2 # subnets
-icnt_arbiter_algo                      1 # arbiter_algo
-icnt_verbose                           0 # inct_verbose
-icnt_grant_cycles                      1 # grant_cycles
-gpgpu_ptx_use_cuobjdump                    1 # Use cuobjdump to extract ptx and sass from binaries
-gpgpu_experimental_lib_support                    0 # Try to extract code from cuda libraries [Broken because of unknown cudaGetExportTable]
-checkpoint_option                      0 #  checkpointing flag (0 = no checkpoint)
-checkpoint_kernel                      1 #  checkpointing during execution of which kernel (1- 1st kernel)
-checkpoint_CTA                         0 #  checkpointing after # of CTA (< less than total CTA)
-resume_option                          0 #  resume flag (0 = no resume)
-resume_kernel                          0 #  Resume from which kernel (1= 1st kernel)
-resume_CTA                             0 #  resume from which CTA 
-checkpoint_CTA_t                       0 #  resume from which CTA 
-checkpoint_insn_Y                      0 #  resume from which CTA 
-gpgpu_ptx_convert_to_ptxplus                    0 # Convert SASS (native ISA) to ptxplus and run ptxplus
-gpgpu_ptx_force_max_capability                   70 # Force maximum compute capability
-gpgpu_ptx_inst_debug_to_file                    0 # Dump executed instructions' debug information to file
-gpgpu_ptx_inst_debug_file       inst_debug.txt # Executed instructions' debug output file
-gpgpu_ptx_inst_debug_thread_uid                    1 # Thread UID for executed instructions' debug output
-gpgpu_simd_model                       1 # 1 = post-dominator
-gpgpu_shader_core_pipeline              2048:32 # shader core pipeline config, i.e., {<nthread>:<warpsize>}
-gpgpu_tex_cache:l1  N:4:128:256,L:R:m:N:L,T:512:8,128:2 # per-shader L1 texture cache  (READ-ONLY) config  {<nsets>:<bsize>:<assoc>,<rep>:<wr>:<alloc>:<wr_alloc>,<mshr>:<N>:<merge>,<mq>:<rf>}
-gpgpu_const_cache:l1 N:128:64:8,L:R:f:N:L,S:2:64,4 # per-shader L1 constant memory cache  (READ-ONLY) config  {<nsets>:<bsize>:<assoc>,<rep>:<wr>:<alloc>:<wr_alloc>,<mshr>:<N>:<merge>,<mq>} 
-gpgpu_cache:il1     N:64:128:16,L:R:f:N:L,S:2:48,4 # shader L1 instruction cache config  {<nsets>:<bsize>:<assoc>,<rep>:<wr>:<alloc>:<wr_alloc>,<mshr>:<N>:<merge>,<mq>} 
-gpgpu_cache:dl1     S:4:128:64,L:T:m:L:L,A:512:8,16:0,32 # per-shader L1 data cache config  {<nsets>:<bsize>:<assoc>,<rep>:<wr>:<alloc>:<wr_alloc>,<mshr>:<N>:<merge>,<mq> | none}
-gpgpu_l1_cache_write_ratio                   25 # L1D write ratio
-gpgpu_l1_banks                         4 # The number of L1 cache banks
-gpgpu_l1_banks_byte_interleaving                   32 # l1 banks byte interleaving granularity
-gpgpu_l1_banks_hashing_function                    0 # l1 banks hashing function
-gpgpu_l1_latency                      20 # L1 Hit Latency
-gpgpu_smem_latency                    20 # smem Latency
-gpgpu_cache:dl1PrefL1                 none # per-shader L1 data cache config  {<nsets>:<bsize>:<assoc>,<rep>:<wr>:<alloc>:<wr_alloc>,<mshr>:<N>:<merge>,<mq> | none}
-gpgpu_cache:dl1PrefShared                 none # per-shader L1 data cache config  {<nsets>:<bsize>:<assoc>,<rep>:<wr>:<alloc>:<wr_alloc>,<mshr>:<N>:<merge>,<mq> | none}
-gpgpu_gmem_skip_L1D                    0 # global memory access skip L1D cache (implements -Xptxas -dlcm=cg, default=no skip)
-gpgpu_perfect_mem                      0 # enable perfect memory mode (no cache miss)
-n_regfile_gating_group                    4 # group of lanes that should be read/written together)
-gpgpu_clock_gated_reg_file                    0 # enable clock gated reg file for power calculations
-gpgpu_clock_gated_lanes                    0 # enable clock gated lanes for power calculations
-gpgpu_shader_registers                65536 # Number of registers per shader core. Limits number of concurrent CTAs. (default 8192)
-gpgpu_registers_per_block                65536 # Maximum number of registers per CTA. (default 8192)
-gpgpu_ignore_resources_limitation                    0 # gpgpu_ignore_resources_limitation (default 0)
-gpgpu_shader_cta                      32 # Maximum number of concurrent CTAs in shader (default 32)
-gpgpu_num_cta_barriers                   16 # Maximum number of named barriers per CTA (default 16)
-gpgpu_n_clusters                      40 # number of processing clusters
-gpgpu_n_cores_per_cluster                    2 # number of simd cores per cluster
-gpgpu_n_cluster_ejection_buffer_size                   32 # number of packets in ejection buffer
-gpgpu_n_ldst_response_buffer_size                    2 # number of response packets in ld/st unit ejection buffer
-gpgpu_shmem_per_block                65536 # Size of shared memory per thread block or CTA (default 48kB)
-gpgpu_shmem_size                   98304 # Size of shared memory per shader core (default 16kB)
-gpgpu_shmem_option       0,8,16,32,64,96 # Option list of shared memory sizes
-gpgpu_unified_l1d_size                  128 # Size of unified data cache(L1D + shared memory) in KB
-gpgpu_adaptive_cache_config                    1 # adaptive_cache_config
-gpgpu_shmem_sizeDefault                98304 # Size of shared memory per shader core (default 16kB)
-gpgpu_shmem_size_PrefL1                16384 # Size of shared memory per shader core (default 16kB)
-gpgpu_shmem_size_PrefShared                16384 # Size of shared memory per shader core (default 16kB)
-gpgpu_shmem_num_banks                   32 # Number of banks in the shared memory in each shader core (default 16)
-gpgpu_shmem_limited_broadcast                    0 # Limit shared memory to do one broadcast per cycle (default on)
-gpgpu_shmem_warp_parts                    1 # Number of portions a warp is divided into for shared memory bank conflict check 
-gpgpu_mem_unit_ports                    1 # The number of memory transactions allowed per core cycle
-gpgpu_shmem_warp_parts                    1 # Number of portions a warp is divided into for shared memory bank conflict check 
-gpgpu_warpdistro_shader                   -1 # Specify which shader core to collect the warp size distribution from
-gpgpu_warp_issue_shader                    0 # Specify which shader core to collect the warp issue distribution from
-gpgpu_local_mem_map                    1 # Mapping from local memory space address to simulated GPU physical address space (default = enabled)
-gpgpu_num_reg_banks                    8 # Number of register banks (default = 8)
-gpgpu_reg_bank_use_warp_id                    0 # Use warp ID in mapping registers to banks (default = off)
-gpgpu_sub_core_model                    1 # Sub Core Volta/Pascal model (default = off)
-gpgpu_enable_specialized_operand_collector                    0 # enable_specialized_operand_collector
-gpgpu_operand_collector_num_units_sp                    4 # number of collector units (default = 4)
-gpgpu_operand_collector_num_units_dp                    0 # number of collector units (default = 0)
-gpgpu_operand_collector_num_units_sfu                    4 # number of collector units (default = 4)
-gpgpu_operand_collector_num_units_int                    0 # number of collector units (default = 0)
-gpgpu_operand_collector_num_units_tensor_core                    4 # number of collector units (default = 4)
-gpgpu_operand_collector_num_units_mem                    2 # number of collector units (default = 2)
-gpgpu_operand_collector_num_units_gen                    8 # number of collector units (default = 0)
-gpgpu_operand_collector_num_in_ports_sp                    1 # number of collector unit in ports (default = 1)
-gpgpu_operand_collector_num_in_ports_dp                    0 # number of collector unit in ports (default = 0)
-gpgpu_operand_collector_num_in_ports_sfu                    1 # number of collector unit in ports (default = 1)
-gpgpu_operand_collector_num_in_ports_int                    0 # number of collector unit in ports (default = 0)
-gpgpu_operand_collector_num_in_ports_tensor_core                    1 # number of collector unit in ports (default = 1)
-gpgpu_operand_collector_num_in_ports_mem                    1 # number of collector unit in ports (default = 1)
-gpgpu_operand_collector_num_in_ports_gen                    8 # number of collector unit in ports (default = 0)
-gpgpu_operand_collector_num_out_ports_sp                    1 # number of collector unit in ports (default = 1)
-gpgpu_operand_collector_num_out_ports_dp                    0 # number of collector unit in ports (default = 0)
-gpgpu_operand_collector_num_out_ports_sfu                    1 # number of collector unit in ports (default = 1)
-gpgpu_operand_collector_num_out_ports_int                    0 # number of collector unit in ports (default = 0)
-gpgpu_operand_collector_num_out_ports_tensor_core                    1 # number of collector unit in ports (default = 1)
-gpgpu_operand_collector_num_out_ports_mem                    1 # number of collector unit in ports (default = 1)
-gpgpu_operand_collector_num_out_ports_gen                    8 # number of collector unit in ports (default = 0)
-gpgpu_coalesce_arch                   60 # Coalescing arch (GT200 = 13, Fermi = 20)
-gpgpu_num_sched_per_core                    4 # Number of warp schedulers per core
-gpgpu_max_insn_issue_per_warp                    1 # Max number of instructions that can be issued per warp in one cycle by scheduler (either 1 or 2)
-gpgpu_dual_issue_diff_exec_units                    1 # should dual issue use two different execution unit resources (Default = 1)
-gpgpu_simt_core_sim_order                    1 # Select the simulation order of cores in a cluster (0=Fix, 1=Round-Robin)
-gpgpu_pipeline_widths 4,4,4,4,4,4,4,4,4,4,8,4,4 # Pipeline widths ID_OC_SP,ID_OC_DP,ID_OC_INT,ID_OC_SFU,ID_OC_MEM,OC_EX_SP,OC_EX_DP,OC_EX_INT,OC_EX_SFU,OC_EX_MEM,EX_WB,ID_OC_TENSOR_CORE,OC_EX_TENSOR_CORE
-gpgpu_tensor_core_avail                    1 # Tensor Core Available (default=0)
-gpgpu_num_sp_units                     4 # Number of SP units (default=1)
-gpgpu_num_dp_units                     4 # Number of DP units (default=0)
-gpgpu_num_int_units                    4 # Number of INT units (default=0)
-gpgpu_num_sfu_units                    4 # Number of SF units (default=1)
-gpgpu_num_tensor_core_units                    4 # Number of tensor_core units (default=1)
-gpgpu_num_mem_units                    1 # Number if ldst units (default=1) WARNING: not hooked up to anything
-gpgpu_scheduler                      lrr # Scheduler configuration: < lrr | gto | two_level_active > If two_level_active:<num_active_warps>:<inner_prioritization>:<outer_prioritization>For complete list of prioritization values see shader.h enum scheduler_prioritization_typeDefault: gto
-gpgpu_concurrent_kernel_sm                    0 # Support concurrent kernels on a SM (default = disabled)
-gpgpu_perfect_inst_const_cache                    1 # perfect inst and const cache mode, so all inst and const hits in the cache(default = disabled)
-gpgpu_inst_fetch_throughput                    4 # the number of fetched intruction per warp each cycle
-gpgpu_reg_file_port_throughput                    2 # the number ports of the register file
-specialized_unit_1         0,4,4,4,4,BRA # specialized unit config {<enabled>,<num_units>:<latency>:<initiation>,<ID_OC_SPEC>:<OC_EX_SPEC>,<NAME>}
-specialized_unit_2         0,4,4,4,4,BRA # specialized unit config {<enabled>,<num_units>:<latency>:<initiation>,<ID_OC_SPEC>:<OC_EX_SPEC>,<NAME>}
-specialized_unit_3         0,4,4,4,4,BRA # specialized unit config {<enabled>,<num_units>:<latency>:<initiation>,<ID_OC_SPEC>:<OC_EX_SPEC>,<NAME>}
-specialized_unit_4         0,4,4,4,4,BRA # specialized unit config {<enabled>,<num_units>:<latency>:<initiation>,<ID_OC_SPEC>:<OC_EX_SPEC>,<NAME>}
-specialized_unit_5         0,4,4,4,4,BRA # specialized unit config {<enabled>,<num_units>:<latency>:<initiation>,<ID_OC_SPEC>:<OC_EX_SPEC>,<NAME>}
-specialized_unit_6         0,4,4,4,4,BRA # specialized unit config {<enabled>,<num_units>:<latency>:<initiation>,<ID_OC_SPEC>:<OC_EX_SPEC>,<NAME>}
-specialized_unit_7         0,4,4,4,4,BRA # specialized unit config {<enabled>,<num_units>:<latency>:<initiation>,<ID_OC_SPEC>:<OC_EX_SPEC>,<NAME>}
-specialized_unit_8         0,4,4,4,4,BRA # specialized unit config {<enabled>,<num_units>:<latency>:<initiation>,<ID_OC_SPEC>:<OC_EX_SPEC>,<NAME>}
-gpgpu_perf_sim_memcpy                    1 # Fill the L2 cache on memcpy
-gpgpu_simple_dram_model                    0 # simple_dram_model with fixed latency and BW
-gpgpu_dram_scheduler                    1 # 0 = fifo, 1 = FR-FCFS (defaul)
-gpgpu_dram_partition_queues          64:64:64:64 # i2$:$2d:d2$:$2i
-l2_ideal                               0 # Use a ideal L2 cache that always hit
-gpgpu_cache:dl2     S:32:128:24,L:B:m:L:P,A:192:4,32:0,32 # unified banked L2 data cache config  {<nsets>:<bsize>:<assoc>,<rep>:<wr>:<alloc>:<wr_alloc>,<mshr>:<N>:<merge>,<mq>}
-gpgpu_cache:dl2_texture_only                    0 # L2 cache used for texture only
-gpgpu_n_mem                           24 # number of memory modules (e.g. memory controllers) in gpu
-gpgpu_n_sub_partition_per_mchannel                    2 # number of memory subpartition in each memory module
-gpgpu_n_mem_per_ctrlr                    1 # number of memory chips per memory controller
-gpgpu_memlatency_stat                   14 # track and display latency statistics 0x2 enables MC, 0x4 enables queue logs
-gpgpu_frfcfs_dram_sched_queue_size                   64 # 0 = unlimited (default); # entries per chip
-gpgpu_dram_return_queue_size                  192 # 0 = unlimited (default); # entries per chip
-gpgpu_dram_buswidth                   16 # default = 4 bytes (8 bytes per cycle at DDR)
-gpgpu_dram_burst_length                    2 # Burst length of each DRAM request (default = 4 data bus cycle)
-dram_data_command_freq_ratio                    2 # Frequency ratio between DRAM data bus and command bus (default = 2 times, i.e. DDR)
-gpgpu_dram_timing_opt nbk=16:CCD=1:RRD=3:RCD=12:RAS=28:RP=12:RC=40: CL=12:WL=2:CDLR=3:WR=10:nbkgrp=4:CCDL=2:RTPL=3 # DRAM timing parameters = {nbk:tCCD:tRRD:tRCD:tRAS:tRP:tRC:CL:WL:tCDLR:tWR:nbkgrp:tCCDL:tRTPL}
-gpgpu_l2_rop_latency                  160 # ROP queue latency (default 85)
-dram_latency                         100 # DRAM latency (default 30)
-dram_dual_bus_interface                  257 # dual_bus_interface (default = 0) 
-dram_bnk_indexing_policy                    1 # dram_bnk_indexing_policy (0 = normal indexing, 1 = Xoring with the higher bits) (Default = 0)
-dram_bnkgrp_indexing_policy                    1 # dram_bnkgrp_indexing_policy (0 = take higher bits, 1 = take lower bits) (Default = 0)
-dram_seperate_write_queue_enable                    1 # Seperate_Write_Queue_Enable
-dram_write_queue_size           128:108:32 # Write_Queue_Size
-dram_elimnate_rw_turnaround                    0 # elimnate_rw_turnaround i.e set tWTR and tRTW = 0
-icnt_flit_size                        40 # icnt_flit_size
-SST_mode                               0 # SST mode
-gpgpu_mem_addr_mapping dramid@8;00000000.00000000.00000000.00000000.0000RRRR.RRRRRRRR.RBBBCCCB.CCCSSSSS # mapping memory address to dram model {dramid@<start bit>;<memory address map>}
-gpgpu_mem_addr_test                    0 # run sweep test to check address mapping for aliased address
-gpgpu_mem_address_mask                    1 # 0 = old addressing mask, 1 = new addressing mask, 2 = new add. mask + flipped bank sel and chip sel bits
-gpgpu_memory_partition_indexing                    2 # 0 = no indexing, 1 = bitwise xoring, 2 = IPoly, 3 = custom indexing
-accelwattch_xml_file accelwattch_sass_sim.xml # AccelWattch XML file
-power_simulation_enabled                    0 # Turn on power simulator (1=On, 0=Off)
-power_per_cycle_dump                    0 # Dump detailed power output each cycle
-hw_perf_file_name            hw_perf.csv # Hardware Performance Statistics file
-hw_perf_bench_name                       # Kernel Name in Hardware Performance Statistics file
-power_simulation_mode                    0 # Switch performance counter input for power simulation (0=Sim, 1=HW, 2=HW-Sim Hybrid)
-dvfs_enabled                           0 # Turn on DVFS for power model
-aggregate_power_stats                    0 # Accumulate power across all kernels
-accelwattch_hybrid_perfsim_L1_RH                    0 # Get L1 Read Hits for Accelwattch-Hybrid from Accel-Sim
-accelwattch_hybrid_perfsim_L1_RM                    0 # Get L1 Read Misses for Accelwattch-Hybrid from Accel-Sim
-accelwattch_hybrid_perfsim_L1_WH                    0 # Get L1 Write Hits for Accelwattch-Hybrid from Accel-Sim
-accelwattch_hybrid_perfsim_L1_WM                    0 # Get L1 Write Misses for Accelwattch-Hybrid from Accel-Sim
-accelwattch_hybrid_perfsim_L2_RH                    0 # Get L2 Read Hits for Accelwattch-Hybrid from Accel-Sim
-accelwattch_hybrid_perfsim_L2_RM                    0 # Get L2 Read Misses for Accelwattch-Hybrid from Accel-Sim
-accelwattch_hybrid_perfsim_L2_WH                    0 # Get L2 Write Hits for Accelwattch-Hybrid from Accel-Sim
-accelwattch_hybrid_perfsim_L2_WM                    0 # Get L2 Write Misses for Accelwattch-Hybrid from Accel-Sim
-accelwattch_hybrid_perfsim_CC_ACC                    0 # Get Constant Cache Acesses for Accelwattch-Hybrid from Accel-Sim
-accelwattch_hybrid_perfsim_SHARED_ACC                    0 # Get Shared Memory Acesses for Accelwattch-Hybrid from Accel-Sim
-accelwattch_hybrid_perfsim_DRAM_RD                    0 # Get DRAM Reads for Accelwattch-Hybrid from Accel-Sim
-accelwattch_hybrid_perfsim_DRAM_WR                    0 # Get DRAM Writes for Accelwattch-Hybrid from Accel-Sim
-accelwattch_hybrid_perfsim_NOC                    0 # Get Interconnect Acesses for Accelwattch-Hybrid from Accel-Sim
-accelwattch_hybrid_perfsim_PIPE_DUTY                    0 # Get Pipeline Duty Cycle Acesses for Accelwattch-Hybrid from Accel-Sim
-accelwattch_hybrid_perfsim_NUM_SM_IDLE                    0 # Get Number of Idle SMs for Accelwattch-Hybrid from Accel-Sim
-accelwattch_hybrid_perfsim_CYCLES                    0 # Get Executed Cycles for Accelwattch-Hybrid from Accel-Sim
-accelwattch_hybrid_perfsim_VOLTAGE                    0 # Get Chip Voltage for Accelwattch-Hybrid from Accel-Sim
-power_trace_enabled                    0 # produce a file for the power trace (1=On, 0=Off)
-power_trace_zlevel                     6 # Compression level of the power trace output log (0=no comp, 9=highest)
-steady_power_levels_enabled                    0 # produce a file for the steady power levels (1=On, 0=Off)
-steady_state_definition                  8:4 # allowed deviation:number of samples
-gpgpu_max_cycle                        0 # terminates gpu simulation early (0 = no limit)
-gpgpu_max_insn                         0 # terminates gpu simulation early (0 = no limit)
-gpgpu_max_cta                          0 # terminates gpu simulation early (0 = no limit)
-gpgpu_max_completed_cta                    0 # terminates gpu simulation early (0 = no limit)
-gpgpu_runtime_stat                   500 # display runtime statistics such as dram utilization {<freq>:<flag>}
-liveness_message_freq                    1 # Minimum number of seconds between simulation liveness messages (0 = always print)
-gpgpu_compute_capability_major                    7 # Major compute capability version number
-gpgpu_compute_capability_minor                    0 # Minor compute capability version number
-gpgpu_flush_l1_cache                    1 # Flush L1 cache at the end of each kernel call
-gpgpu_flush_l2_cache                    0 # Flush L2 cache at the end of each kernel call
-gpgpu_deadlock_detect                    1 # Stop the simulation at deadlock (1=on (default), 0=off)
-gpgpu_ptx_instruction_classification                    0 # if enabled will classify ptx instruction types per kernel (Max 255 kernels now)
-gpgpu_ptx_sim_mode                     0 # Select between Performance (default) or Functional simulation (1)
-gpgpu_clock_domains 1200.0:1200.0:1200.0:850.0 # Clock Domain Frequencies in MhZ {<Core Clock>:<ICNT Clock>:<L2 Clock>:<DRAM Clock>}
-gpgpu_max_concurrent_kernel                  128 # maximum kernels that can run concurrently on GPU, set this value according to max resident grids for your compute capability
-gpgpu_cflog_interval                    0 # Interval between each snapshot in control flow logger
-visualizer_enabled                     0 # Turn on visualizer output (1=On, 0=Off)
-visualizer_outputfile                 NULL # Specifies the output log file for visualizer
-visualizer_zlevel                      6 # Compression level of the visualizer output log (0=no comp, 9=highest)
-gpgpu_stack_size_limit                 1024 # GPU thread stack size
-gpgpu_heap_size_limit              8388608 # GPU malloc heap size 
-gpgpu_runtime_sync_depth_limit                    2 # GPU device runtime synchronize depth
-gpgpu_runtime_pending_launch_count_limit                 2048 # GPU device runtime pending launch count
-trace_enabled                          0 # Turn on traces
-trace_components                    none # comma seperated list of traces to enable. Complete list found in trace_streams.tup. Default none
-trace_sampling_core                    0 # The core which is printed using CORE_DPRINTF. Default 0
-trace_sampling_memory_partition                   -1 # The memory partition which is printed using MEMPART_DPRINTF. Default -1 (i.e. all)
-enable_ptx_file_line_stats                    1 # Turn on PTX source line statistic profiling. (1 = On)
-ptx_line_stats_filename gpgpu_inst_stats.txt # Output file for PTX source line statistics.
-gpgpu_kernel_launch_latency                    0 # Kernel launch latency in cycles. Default: 0
-gpgpu_cdp_enabled                      0 # Turn on CDP
-gpgpu_TB_launch_latency                    0 # thread block launch latency in cycles. Default: 0
DRAM Timing Options:
nbk                                    16 # number of banks
CCD                                     1 # column to column delay
RRD                              22f90f6d9b4300b340ea346a79eb1f15  /workspace/gpgpu-sim_simulations/benchmarks/src/cuda/bin/release/MVT
Extracting PTX file and ptxas options    1: MVT.1.sm_30.ptx -arch=sm_30
       3 # minimal delay between activation of rows in different banks
RCD                                    12 # row to column delay
RAS                                    28 # time needed to activate row
RP                                     12 # time needed to precharge (deactivate) row
RC                                     40 # row cycle time
CDLR                                    3 # switching from write to read (changes tWTR)
WR                                     10 # last data-in to row precharge
CL                                     12 # CAS latency
WL                                      2 # Write latency
nbkgrp                                  4 # number of bank groups
CCDL                                    2 # column to column delay between accesses to different bank groups
RTPL                                    3 # read to precharge delay between accesses to different bank groups
Total number of memory sub partition = 48
addr_dec_mask[CHIP]  = 0000000000000000 	high:64 low:0
addr_dec_mask[BK]    = 0000000000007100 	high:15 low:8
addr_dec_mask[ROW]   = 000000000fff8000 	high:28 low:15
addr_dec_mask[COL]   = 0000000000000eff 	high:12 low:0
addr_dec_mask[BURST] = 000000000000001f 	high:5 low:0
sub_partition_id_mask = 0000000000000100
GPGPU-Sim uArch: clock freqs: 1200000000.000000:1200000000.000000:1200000000.000000:850000000.000000
GPGPU-Sim uArch: clock periods: 0.00000000083333333333:0.00000000083333333333:0.00000000083333333333:0.00000000117647058824
*** Initializing Memory Statistics ***
GPGPU-Sim uArch: performance model initialization complete.
GPGPU-Sim PTX: __cudaRegisterFatBinary, fat_cubin_handle = 1, filename=default
self exe links to: /workspace/gpgpu-sim_simulations/benchmarks/src/cuda/bin/release/MVT
Running md5sum using "md5sum /workspace/gpgpu-sim_simulations/benchmarks/src/cuda/bin/release/MVT "
self exe links to: /workspace/gpgpu-sim_simulations/benchmarks/src/cuda/bin/release/MVT
Extracting specific PTX file named MVT.1.sm_30.ptx 
GPGPU-Sim PTX: __cudaRegisterFunction _Z11mvt_kernel2PfS_S_ : hostFun 0x0x62094b001bd0, fat_cubin_handle = 1
GPGPU-Sim PTX: Parsing MVT.1.sm_30.ptx
GPGPU-Sim PTX: instruction assembly for function '_Z11mvt_kernel1PfS_S_'...   done.
GPGPU-Sim PTX: instruction assembly for function '_Z11mvt_kernel2PfS_S_'...   done.
GPGPU-Sim PTX: finished parsing EMBEDDED .ptx file MVT.1.sm_30.ptx
GPGPU-Sim PTX: loading globals with explicit initializers... 
GPGPU-Sim PTX: finished loading globals (0 bytes total).
GPGPU-Sim PTX: loading constants with explicit initializers...  done.
GPGPU-Sim PTX: Loading PTXInfo from MVT.1.sm_30.ptx
GPGPU-Sim PTX: Kernel '_Z11mvt_kernel2PfS_S_' : regs=18, lmem=0, smem=0, cmem=344
GPGPU-Sim PTX: Kernel '_Z11mvt_kernel1PfS_S_' : regs=20, lmem=0, smem=0, cmem=344
GPGPU-Sim PTX: __cudaRegisterFunction _Z11mvt_kernel1PfS_S_ : hostFun 0x0x62094b001a4b, fat_cubin_handle = 1
setting device 0 with name GPGPU-Sim_vGPGPU-Sim Simulator Version 4.2.0 
GPGPU-Sim PTX: Setting up arguments for 8 bytes starting at 0x7ffe4d8fadc8..
GPGPU-Sim PTX: Setting up arguments for 8 bytes starting at 0x7ffe4d8fadc0..
GPGPU-Sim PTX: Setting up arguments for 8 bytes starting at 0x7ffe4d8fadb8..

GPGPU-Sim PTX: cudaLaunch for 0x0x62094b001a4b (mode=performance simulation) on stream 0
GPGPU-Sim PTX: finding reconvergence points for '_Z11mvt_kernel1PfS_S_'...
GPGPU-Sim PTX: Finding dominators for '_Z11mvt_kernel1PfS_S_'...
GPGPU-Sim PTX: Finding immediate dominators for '_Z11mvt_kernel1PfS_S_'...
GPGPU-Sim PTX: Finding postdominators for '_Z11mvt_kernel1PfS_S_'...
GPGPU-Sim PTX: Finding immediate postdominators for '_Z11mvt_kernel1PfS_S_'...
GPGPU-Sim PTX: pre-decoding instructions for '_Z11mvt_kernel1PfS_S_'...
GPGPU-Sim PTX: reconvergence points for _Z11mvt_kernel1PfS_S_...
GPGPU-Sim PTX:  1 (potential) branch divergence @  PC=0x040 (MVT.1.sm_30.ptx:35) @%p1 bra BB0_3;
GPGPU-Sim PTX:    immediate post dominator      @  PC=0x1d0 (MVT.1.sm_30.ptx:90) ret;
GPGPU-Sim PTX:  2 (potential) branch divergence @  PC=0x1c8 (MVT.1.sm_30.ptx:87) @%p2 bra BB0_2;
GPGPU-Sim PTX:    immediate post dominator      @  PC=0x1d0 (MVT.1.sm_30.ptx:90) ret;
GPGPU-Sim PTX: ... end of reconvergence points for _Z11mvt_kernel1PfS_S_
GPGPU-Sim PTX: ... done pre-decoding instructions for '_Z11mvt_kernel1PfS_S_'.
GPGPU-Sim PTX: pushing kernel '_Z11mvt_kernel1PfS_S_' to stream 0, gridDim= (16,1,1) blockDim = (256,1,1) 
GPGPU-Sim uArch: Shader 0 bind to kernel 1 '_Z11mvt_kernel1PfS_S_'
GPGPU-Sim uArch: CTA/core = 8, limited by: threads
GPGPU-Sim: Reconfigure L1 cache to 128KB
GPGPU-Sim uArch: Shader 2 bind to kernel 1 '_Z11mvt_kernel1PfS_S_'
GPGPU-Sim uArch: Shader 4 bind to kernel 1 '_Z11mvt_kernel1PfS_S_'
GPGPU-Sim uArch: Shader 6 bind to kernel 1 '_Z11mvt_kernel1PfS_S_'
GPGPU-Sim uArch: Shader 8 bind to kernel 1 '_Z11mvt_kernel1PfS_S_'
GPGPU-Sim uArch: Shader 10 bind to kernel 1 '_Z11mvt_kernel1PfS_S_'
GPGPU-Sim uArch: Shader 12 bind to kernel 1 '_Z11mvt_kernel1PfS_S_'
GPGPU-Sim uArch: Shader 14 bind to kernel 1 '_Z11mvt_kernel1PfS_S_'
GPGPU-Sim uArch: Shader 16 bind to kernel 1 '_Z11mvt_kernel1PfS_S_'
GPGPU-Sim uArch: Shader 18 bind to kernel 1 '_Z11mvt_kernel1PfS_S_'
GPGPU-Sim uArch: Shader 20 bind to kernel 1 '_Z11mvt_kernel1PfS_S_'
GPGPU-Sim uArch: Shader 22 bind to kernel 1 '_Z11mvt_kernel1PfS_S_'
GPGPU-Sim uArch: Shader 24 bind to kernel 1 '_Z11mvt_kernel1PfS_S_'
GPGPU-Sim uArch: Shader 26 bind to kernel 1 '_Z11mvt_kernel1PfS_S_'
GPGPU-Sim uArch: Shader 28 bind to kernel 1 '_Z11mvt_kernel1PfS_S_'
GPGPU-Sim uArch: Shader 30 bind to kernel 1 '_Z11mvt_kernel1PfS_S_'
Destroy streams for kernel 1: size 0
kernel_name = _Z11mvt_kernel1PfS_S_ 
kernel_launch_uid = 1 
kernel_stream_id = 0
gpu_sim_cycle = 1119035
gpu_sim_insn = 79769600
gpu_ipc =      71.2843
gpu_tot_sim_cycle = 1119035
gpu_tot_sim_insn = 79769600
gpu_tot_ipc =      71.2843
gpu_tot_issued_cta = 16
gpu_occupancy = 12.4608% 
gpu_tot_occupancy = 12.4608% 
max_total_param_size = 0
gpu_stall_dramfull = 0
gpu_stall_icnt2sh    = 0
partiton_level_parallism =       4.0666
partiton_level_parallism_total  =       4.0666
partiton_level_parallism_util =       4.1160
partiton_level_parallism_util_total  =       4.1160
L2_BW  =     156.1563 GB/Sec
L2_BW_total  =     156.1563 GB/Sec
gpu_total_sim_rate=43805

========= Core cache stats =========
L1I_cache:
	L1I_total_cache_accesses = 0
	L1I_total_cache_misses = 0
	L1I_total_cache_pending_hits = 0
	L1I_total_cache_reservation_fails = 0
L1D_cache:
	L1D_cache_core[0]: Access = 1212448, Miss = 149250, Miss_rate = 0.123, Pending_hits = 64, Reservation_fails = 291
	L1D_cache_core[1]: Access = 1212448, Miss = 152579, Miss_rate = 0.126, Pending_hits = 39, Reservation_fails = 304
	L1D_cache_core[2]: Access = 1212448, Miss = 146166, Miss_rate = 0.121, Pending_hits = 27, Reservation_fails = 187
	L1D_cache_core[3]: Access = 1212448, Miss = 173995, Miss_rate = 0.144, Pending_hits = 70, Reservation_fails = 328
	L1D_cache_core[4]: Access = 1212448, Miss = 150574, Miss_rate = 0.124, Pending_hits = 34, Reservation_fails = 208
	L1D_cache_core[5]: Access = 1212448, Miss = 153528, Miss_rate = 0.127, Pending_hits = 40, Reservation_fails = 214
	L1D_cache_core[6]: Access = 1212448, Miss = 161953, Miss_rate = 0.134, Pending_hits = 73, Reservation_fails = 309
	L1D_cache_core[7]: Access = 1212448, Miss = 161617, Miss_rate = 0.133, Pending_hits = 47, Reservation_fails = 339
	L1D_cache_core[8]: Access = 1212448, Miss = 158823, Miss_rate = 0.131, Pending_hits = 13, Reservation_fails = 315
	L1D_cache_core[9]: Access = 1212448, Miss = 162400, Miss_rate = 0.134, Pending_hits = 62, Reservation_fails = 242
	L1D_cache_core[10]: Access = 1212448, Miss = 161798, Miss_rate = 0.133, Pending_hits = 26, Reservation_fails = 299
	L1D_cache_core[11]: Access = 1212448, Miss = 142212, Miss_rate = 0.117, Pending_hits = 32, Reservation_fails = 177
	L1D_cache_core[12]: Access = 1212448, Miss = 141154, Miss_rate = 0.116, Pending_hits = 43, Reservation_fails = 197
	L1D_cache_core[13]: Access = 1212448, Miss = 149235, Miss_rate = 0.123, Pending_hits = 16, Reservation_fails = 260
	L1D_cache_core[14]: Access = 1212448, Miss = 150833, Miss_rate = 0.124, Pending_hits = 48, Reservation_fails = 267
	L1D_cache_core[15]: Access = 1212448, Miss = 137494, Miss_rate = 0.113, Pending_hits = 10, Reservation_fails = 285
	L1D_cache_core[16]: Access = 0, Miss = 0, Miss_rate = -nan, Pending_hits = 0, Reservation_fails = 0
	L1D_cache_core[17]: Access = 0, Miss = 0, Miss_rate = -nan, Pending_hits = 0, Reservation_fails = 0
	L1D_cache_core[18]: Access = 0, Miss = 0, Miss_rate = -nan, Pending_hits = 0, Reservation_fails = 0
	L1D_cache_core[19]: Access = 0, Miss = 0, Miss_rate = -nan, Pending_hits = 0, Reservation_fails = 0
	L1D_cache_core[20]: Access = 0, Miss = 0, Miss_rate = -nan, Pending_hits = 0, Reservation_fails = 0
	L1D_cache_core[21]: Access = 0, Miss = 0, Miss_rate = -nan, Pending_hits = 0, Reservation_fails = 0
	L1D_cache_core[22]: Access = 0, Miss = 0, Miss_rate = -nan, Pending_hits = 0, Reservation_fails = 0
	L1D_cache_core[23]: Access = 0, Miss = 0, Miss_rate = -nan, Pending_hits = 0, Reservation_fails = 0
	L1D_cache_core[24]: Access = 0, Miss = 0, Miss_rate = -nan, Pending_hits = 0, Reservation_fails = 0
	L1D_cache_core[25]: Access = 0, Miss = 0, Miss_rate = -nan, Pending_hits = 0, Reservation_fails = 0
	L1D_cache_core[26]: Access = 0, Miss = 0, Miss_rate = -nan, Pending_hits = 0, Reservation_fails = 0
	L1D_cache_core[27]: Access = 0, Miss = 0, Miss_rate = -nan, Pending_hits = 0, Reservation_fails = 0
	L1D_cache_core[28]: Access = 0, Miss = 0, Miss_rate = -nan, Pending_hits = 0, Reservation_fails = 0
	L1D_cache_core[29]: Access = 0, Miss = 0, Miss_rate = -nan, Pending_hits = 0, Reservation_fails = 0
	L1D_cache_core[30]: Access = 0, Miss = 0, Miss_rate = -nan, Pending_hits = 0, Reservation_fails = 0
	L1D_cache_core[31]: Access = 0, Miss = 0, Miss_rate = -nan, Pending_hits = 0, Reservation_fails = 0
	L1D_cache_core[32]: Access = 0, Miss = 0, Miss_rate = -nan, Pending_hits = 0, Reservation_fails = 0
	L1D_cache_core[33]: Access = 0, Miss = 0, Miss_rate = -nan, Pending_hits = 0, Reservation_fails = 0
	L1D_cache_core[34]: Access = 0, Miss = 0, Miss_rate = -nan, Pending_hits = 0, Reservation_fails = 0
	L1D_cache_core[35]: Access = 0, Miss = 0, Miss_rate = -nan, Pending_hits = 0, Reservation_fails = 0
	L1D_cache_core[36]: Access = 0, Miss = 0, Miss_rate = -nan, Pending_hits = 0, Reservation_fails = 0
	L1D_cache_core[37]: Access = 0, Miss = 0, Miss_rate = -nan, Pending_hits = 0, Reservation_fails = 0
	L1D_cache_core[38]: Access = 0, Miss = 0, Miss_rate = -nan, Pending_hits = 0, Reservation_fails = 0
	L1D_cache_core[39]: Access = 0, Miss = 0, Miss_rate = -nan, Pending_hits = 0, Reservation_fails = 0
	L1D_total_cache_accesses = 19399168
	L1D_total_cache_misses = 2453611
	L1D_total_cache_miss_rate = 0.1265
	L1D_total_cache_pending_hits = 644
	L1D_total_cache_reservation_fails = 4222
	L1D_cache_data_port_util = 0.947
	L1D_cache_fill_port_util = 0.137
L1C_cache:
	L1C_total_cache_accesses = 0
	L1C_total_cache_misses = 0
	L1C_total_cache_pending_hits = 0
	L1C_total_cache_reservation_fails = 0
L1T_cache:
	L1T_total_cache_accesses = 0
	L1T_total_cache_misses = 0
	L1T_total_cache_pending_hits = 0
	L1T_total_cache_reservation_fails = 0

Total_core_cache_stats:
	Total_core_cache_stats_breakdown[GLOBAL_ACC_R][HIT] = 14847889
	Total_core_cache_stats_breakdown[GLOBAL_ACC_R][HIT_RESERVED] = 644
	Total_core_cache_stats_breakdown[GLOBAL_ACC_R][MISS] = 894054
	Total_core_cache_stats_breakdown[GLOBAL_ACC_R][RESERVATION_FAIL] = 643
	Total_core_cache_stats_breakdown[GLOBAL_ACC_R][SECTOR_MISS] = 1559429
	Total_core_cache_stats_breakdown[GLOBAL_ACC_R][MSHR_HIT] = 644
	Total_core_cache_stats_breakdown[LOCAL_ACC_R][HIT] = 0
	Total_core_cache_stats_breakdown[LOCAL_ACC_R][HIT_RESERVED] = 0
	Total_core_cache_stats_breakdown[LOCAL_ACC_R][MISS] = 0
	Total_core_cache_stats_breakdown[LOCAL_ACC_R][RESERVATION_FAIL] = 0
	Total_core_cache_stats_breakdown[LOCAL_ACC_R][SECTOR_MISS] = 0
	Total_core_cache_stats_breakdown[LOCAL_ACC_R][MSHR_HIT] = 0
	Total_core_cache_stats_breakdown[CONST_ACC_R][HIT] = 0
	Total_core_cache_stats_breakdown[CONST_ACC_R][HIT_RESERVED] = 0
	Total_core_cache_stats_breakdown[CONST_ACC_R][MISS] = 0
	Total_core_cache_stats_breakdown[CONST_ACC_R][RESERVATION_FAIL] = 0
	Total_core_cache_stats_breakdown[CONST_ACC_R][SECTOR_MISS] = 0
	Total_core_cache_stats_breakdown[CONST_ACC_R][MSHR_HIT] = 0
	Total_core_cache_stats_breakdown[TEXTURE_ACC_R][HIT] = 0
	Total_core_cache_stats_breakdown[TEXTURE_ACC_R][HIT_RESERVED] = 0
	Total_core_cache_stats_breakdown[TEXTURE_ACC_R][MISS] = 0
	Total_core_cache_stats_breakdown[TEXTURE_ACC_R][RESERVATION_FAIL] = 0
	Total_core_cache_stats_breakdown[TEXTURE_ACC_R][SECTOR_MISS] = 0
	Total_core_cache_stats_breakdown[TEXTURE_ACC_R][MSHR_HIT] = 0
	Total_core_cache_stats_breakdown[GLOBAL_ACC_W][HIT] = 2097024
	Total_core_cache_stats_breakdown[GLOBAL_ACC_W][HIT_RESERVED] = 0
	Total_core_cache_stats_breakdown[GLOBAL_ACC_W][MISS] = 32
	Total_core_cache_stats_breakdown[GLOBAL_ACC_W][RESERVATION_FAIL] = 3579
	Total_core_cache_stats_breakdown[GLOBAL_ACC_W][SECTOR_MISS] = 96
	Total_core_cache_stats_breakdown[GLOBAL_ACC_W][MSHR_HIT] = 0
	Total_core_cache_stats_breakdown[LOCAL_ACC_W][HIT] = 0
	Total_core_cache_stats_breakdown[LOCAL_ACC_W][HIT_RESERVED] = 0
	Total_core_cache_stats_breakdown[LOCAL_ACC_W][MISS] = 0
	Total_core_cache_stats_breakdown[LOCAL_ACC_W][RESERVATION_FAIL] = 0
	Total_core_cache_stats_breakdown[LOCAL_ACC_W][SECTOR_MISS] = 0
	Total_core_cache_stats_breakdown[LOCAL_ACC_W][MSHR_HIT] = 0
	Total_core_cache_stats_breakdown[L1_WRBK_ACC][HIT] = 0
	Total_core_cache_stats_breakdown[L1_WRBK_ACC][HIT_RESERVED] = 0
	Total_core_cache_stats_breakdown[L1_WRBK_ACC][MISS] = 0
	Total_core_cache_stats_breakdown[L1_WRBK_ACC][RESERVATION_FAIL] = 0
	Total_core_cache_stats_breakdown[L1_WRBK_ACC][SECTOR_MISS] = 0
	Total_core_cache_stats_breakdown[L1_WRBK_ACC][MSHR_HIT] = 0
	Total_core_cache_stats_breakdown[L2_WRBK_ACC][HIT] = 0
	Total_core_cache_stats_breakdown[L2_WRBK_ACC][HIT_RESERVED] = 0
	Total_core_cache_stats_breakdown[L2_WRBK_ACC][MISS] = 0
	Total_core_cache_stats_breakdown[L2_WRBK_ACC][RESERVATION_FAIL] = 0
	Total_core_cache_stats_breakdown[L2_WRBK_ACC][SECTOR_MISS] = 0
	Total_core_cache_stats_breakdown[L2_WRBK_ACC][MSHR_HIT] = 0
	Total_core_cache_stats_breakdown[INST_ACC_R][HIT] = 0
	Total_core_cache_stats_breakdown[INST_ACC_R][HIT_RESERVED] = 0
	Total_core_cache_stats_breakdown[INST_ACC_R][MISS] = 0
	Total_core_cache_stats_breakdown[INST_ACC_R][RESERVATION_FAIL] = 0
	Total_core_cache_stats_breakdown[INST_ACC_R][SECTOR_MISS] = 0
	Total_core_cache_stats_breakdown[INST_ACC_R][MSHR_HIT] = 0
	Total_core_cache_stats_breakdown[L1_WR_ALLOC_R][HIT] = 0
	Total_core_cache_stats_breakdown[L1_WR_ALLOC_R][HIT_RESERVED] = 0
	Total_core_cache_stats_breakdown[L1_WR_ALLOC_R][MISS] = 0
	Total_core_cache_stats_breakdown[L1_WR_ALLOC_R][RESERVATION_FAIL] = 0
	Total_core_cache_stats_breakdown[L1_WR_ALLOC_R][SECTOR_MISS] = 0
	Total_core_cache_stats_breakdown[L1_WR_ALLOC_R][MSHR_HIT] = 0
	Total_core_cache_stats_breakdown[L2_WR_ALLOC_R][HIT] = 0
	Total_core_cache_stats_breakdown[L2_WR_ALLOC_R][HIT_RESERVED] = 0
	Total_core_cache_stats_breakdown[L2_WR_ALLOC_R][MISS] = 0
	Total_core_cache_stats_breakdown[L2_WR_ALLOC_R][RESERVATION_FAIL] = 0
	Total_core_cache_stats_breakdown[L2_WR_ALLOC_R][SECTOR_MISS] = 0
	Total_core_cache_stats_breakdown[L2_WR_ALLOC_R][MSHR_HIT] = 0
	Total_core_cache_stats_breakdown[GLOBAL_ACC_R][TOTAL_ACCESS] = 17302016
	Total_core_cache_stats_breakdown[GLOBAL_ACC_W][TOTAL_ACCESS] = 2097152

Total_core_cache_fail_stats:
	Total_core_cache_fail_stats_breakdown[GLOBAL_ACC_R][LINE_ALLOC_FAIL] = 117
	Total_core_cache_fail_stats_breakdown[GLOBAL_ACC_R][MISS_QUEUE_FULL] = 526
	Total_core_cache_fail_stats_breakdown[GLOBAL_ACC_W][MISS_QUEUE_FULL] = 3579
ctas_completed 16, Shader 0 warp_id issue ditsribution:
warp_id:
0, 1, 2, 3, 4, 5, 6, 7, 
distro:
19477, 19477, 19477, 19477, 19477, 19477, 19477, 19477, 
gpgpu_n_tot_thrd_icount = 79777792
gpgpu_n_tot_w_icount = 2493056
gpgpu_n_stall_shd_mem = 16253813
gpgpu_n_mem_read_local = 0
gpgpu_n_mem_write_local = 0
gpgpu_n_mem_read_global = 2453483
gpgpu_n_mem_write_global = 2097152
gpgpu_n_mem_texture = 0
gpgpu_n_mem_const = 0
gpgpu_n_load_insn  = 33558528
gpgpu_n_store_insn = 16777216
gpgpu_n_shmem_insn = 0
gpgpu_n_sstarr_insn = 0
gpgpu_n_tex_insn = 0
gpgpu_n_const_mem_insn = 0
gpgpu_n_param_mem_insn = 12288
gpgpu_n_shmem_bkconflict = 0
gpgpu_n_l1cache_bkconflict = 16253813
gpgpu_n_intrawarp_mshr_merge = 0
gpgpu_n_cmem_portconflict = 0
gpgpu_stall_shd_mem[c_mem][resource_stall] = 0
gpgpu_stall_shd_mem[s_mem][bk_conf] = 0
gpgpu_stall_shd_mem[gl_mem][resource_stall] = 16253813
gpgpu_stall_shd_mem[gl_mem][coal_stall] = 0
gpgpu_stall_shd_mem[gl_mem][data_port_stall] = 0
gpu_reg_bank_conflict_stalls = 0
Warp Occupancy Distribution:
Stall:17655394	W0_Idle:140609	W0_Scoreboard:51251293	W1:0	W2:0	W3:0	W4:0	W5:0	W6:0	W7:0	W8:0	W9:0	W10:0	W11:0	W12:0	W13:0	W14:0	W15:0	W16:0	W17:0	W18:0	W19:0	W20:0	W21:0	W22:0	W23:0	W24:0	W25:0	W26:0	W27:0	W28:0	W29:0	W30:0	W31:0	W32:2493056
single_issue_nums: WS0:623264	WS1:623264	WS2:623264	WS3:623264	
dual_issue_nums: WS0:0	WS1:0	WS2:0	WS3:0	
traffic_breakdown_coretomem[GLOBAL_ACC_R] = 19627864 {8:2453483,}
traffic_breakdown_coretomem[GLOBAL_ACC_W] = 83886080 {40:2097152,}
traffic_breakdown_memtocore[GLOBAL_ACC_R] = 98139320 {40:2453483,}
traffic_breakdown_memtocore[GLOBAL_ACC_W] = 16777216 {8:2097152,}
maxmflatency = 1380 
max_icnt2mem_latency = 142 
maxmrqlatency = 696 
max_icnt2sh_latency = 252 
averagemflatency = 274 
avg_icnt2mem_latency = 26 
avg_mrq_latency = 8 
avg_icnt2sh_latency = 6 
mrq_lat_table:1039523 	607174 	36896 	66865 	144055 	130480 	57498 	8339 	746 	108 	0 	0 	0 	0 	0 	0 	0 	0 	0 	0 	0 	0 	0 	0 	0 	0 	0 	0 	0 	0 	0 	0 	
dq_lat_table:0 	0 	0 	0 	0 	0 	0 	0 	0 	0 	0 	0 	0 	0 	0 	0 	0 	0 	0 	0 	0 	0 	0 	0 	0 	0 	0 	0 	0 	0 	0 	0 	
mf_lat_table:0 	0 	0 	0 	0 	0 	0 	2425363 	2116974 	7868 	430 	0 	0 	0 	0 	0 	0 	0 	0 	0 	0 	0 	0 	0 	0 	0 	0 	0 	0 	0 	0 	0 	
icnt2mem_lat_table:0 	0 	0 	0 	4168448 	380596 	1569 	22 	0 	0 	0 	0 	0 	0 	0 	0 	0 	0 	0 	0 	0 	0 	0 	0 	
icnt2sh_lat_table:0 	2886184 	859891 	404947 	241624 	111167 	41733 	5089 	0 	0 	0 	0 	0 	0 	0 	0 	0 	0 	0 	0 	0 	0 	0 	0 	
mf_lat_pw_table:0 	0 	0 	0 	0 	0 	0 	112 	2126 	0 	0 	0 	0 	0 	0 	0 	0 	0 	0 	0 	0 	0 	0 	0 	0 	0 	0 	0 	0 	0 	0 	0 	
maximum concurrent accesses to same row:
dram[0]:         2         2         2         2         2         1         1         2         2         1         2         2         1         2         2         1 
dram[1]:         2         2         2         2         2         2         2         1         2         2         2         2         2         2         1         2 
dram[2]:         2         1         2         2         2         2         2         1         1         2         2         2         2         2         2         1 
dram[3]:         2         1         1         1         1         2         2         2         2         2         2         2         2         2         2         2 
dram[4]:         1         1         2         1         2         1         2         2         2         2         1         2         2         1         2         2 
dram[5]:         2         2         2         2         1         1         2         2         1         2         1         2         2         2         2         2 
dram[6]:         1         1         2         2         2         1         2         2         2         2         2         2         1         1         2         2 
dram[7]:         2         2         2         1         2         1         2         1         2         2         2         1         2         2         2         2 
dram[8]:         1         1         1         1         1         1         1         1         1         1         2         2         1         1         2         2 
dram[9]:         1         1         1         2         1         2         1         1         2         1         1         1         1         1         1         2 
dram[10]:         1         1         1         1         1         1         1         2         2         1         1         1         1         1         1         1 
dram[11]:         1         1         1         2         1         1         2         2         1         1         1         1         2         1         1         1 
dram[12]:         2         2         1         1         1         1         1         1         1         1         1         1         1         1         2         2 
dram[13]:         2         1         1         1         1         1         2         1         2         1         1         1         1         1         1         1 
dram[14]:         1         2         2         1         1         2         1         1         1         2         1         1         1         1         1         1 
dram[15]:         1         1         1         1         1         1         1         2         1         1         2         1         2         1         2         2 
dram[16]:         1         1         1         1         1         1         2         1         1         1         1         1         1         2         1         1 
dram[17]:         1         2         1         1         1         1         1         2         2         2         1         1         1         1         2         1 
dram[18]:         1         2         2         1         1         1         1         1         1         1         1         1         1         1         1         1 
dram[19]:         1         2         1         1         1         1         1         1         1         1         1         1         1         1         2         1 
dram[20]:         1         1         1         2         1         1         1         2         1         2         1         1         2         2         1         1 
dram[21]:         1         1         1         2         2         1         1         1         1         1         1         1         1         1         1         1 
dram[22]:         1         1         2         2         1         1         1         1         1         1         1         1         1         1         1         1 
dram[23]:         1         1         1         1         1         1         1         1         1         2         1         1         1         1         2         2 
maximum service time to same row:
dram[0]:       936       883       933      1046      1055       968      1078       921      1176      1103       973      1128      1243      1142      1250       970 
dram[1]:      1296      1049      1307      1052       980       937      1203      1125       941      1056      1106      1018      1158      1044      1116       965 
dram[2]:      1055      1166      1056      1168       970      1342      1224      1367      1069      1083      1043      1181      1017      1105       924      1117 
dram[3]:      1025       845       958       822      1041       980       945      1103       962       927      1041      1015      1126       956      1461      1222 
dram[4]:       941       973       940       982       961       888       896       898      1012      1049      1148       857      1119      1258      1261      1281 
dram[5]:      1078      1064      1012      1073      1084      1063       964       984      1113      1008       960      1034       997      1067      1207       978 
dram[6]:       891       967       993       980       938      1016       935      1160      1144      1428      1207      1426      1066       971      1073       911 
dram[7]:       986      1224       977      1002      1034      1268       953       998      1049       888      1093      1032       960      1286       933      1071 
dram[8]:      1472      1622      1517      2167      1708      2473      1855      1562      1889      2061      1647      1684      1589      2006      1694      1795 
dram[9]:      1663      1753      1683      2524      1533      2621      1627      1830      2197      1691      2500      1921      1766      1676      1643      1723 
dram[10]:      1773      1704      1887      1879      2136      2244      1673      1648      3017      1621      1720      1600      1757      1777      1737      1690 
dram[11]:      1578      1929      1633      3513      1913      1893      3157      1581      1997      1724      1613      1673      1734      2005      2058      1543 
dram[12]:      1455      1684      1647      1592      1619      1546      1691      1815      1868      1685      1663      1658      1906      1796      1772      1551 
dram[13]:      1660      1648      1761      3517      1627      1832      2654      1598      1858      2279      1646      1778      1673      1672      1823      1759 
dram[14]:      1641      1528      1550      1579      1597      2549      1601      2046      2293      1730      1813      1544      1626      1715      1762      1647 
dram[15]:      1696      1789      1691      3271      1606      1974      1880      1854      2047      1796      1562      2022      1594      1487      3126      1559 
dram[16]:      1588      1653      1893      1694      1866      1572      1724      2219      1572      1673      1822      1745      1748      1671      1583      1764 
dram[17]:      1581      1939      1663      1793      1562      1861      1482      2607      2468      1621      1689      1735      1754      1725      1809      1649 
dram[18]:      1898      1881      2033      1696      1701      1699      1691      1944      1715      2261      1640      2036      1828      1679      1578      1956 
dram[19]:      1619      2827      1538      2023      1947      1716      1621      1644      1615      1715      1895      1907      1894      1760      1549      1665 
dram[20]:      1648      1532      1568      1626      1692      1701      1921      1581      1788      1710      2003      1755      1842      1546      1509      1573 
dram[21]:      1755      1908      1620      1658      3417      1709      1865      1844      1641      2117      1823      1774      1713      1787      1645      1966 
dram[22]:      1784      1858      2367      1565      1760      2134      1552      2112      1749      1642      2055      1673      1772      1764      1688      1746 
dram[23]:      1990      1773      1708      1696      1733      1906      1754      1962      1739      1787      1860      1705      1612      1625      1594      1755 
average row accesses per activate:
dram[0]:  1.000244  1.000488  1.000613  1.000612  1.000243  1.000000  1.000121  1.000485  1.000491  1.000123  1.000491  1.000245  1.000123  1.000982  1.000491  1.000245 
dram[1]:  1.000122  1.000244  1.000123  1.000367  1.000121  1.000243  1.000971  1.000000  1.000368  1.000491  1.000368  1.000491  1.000245  1.000245  1.000000  1.000859 
dram[2]:  1.000122  1.000122  1.000245  1.000735  1.000485  1.000121  1.000121  1.000000  1.000000  1.000246  1.000491  1.000246  1.000613  1.000245  1.000613  1.000245 
dram[3]:  1.000854  1.000000  1.000000  1.000000  1.000000  1.000121  1.000243  1.000121  1.000368  1.000246  1.000245  1.000369  1.000861  1.000245  1.000123  1.000368 
dram[4]:  1.000000  1.000000  1.000123  1.000000  1.000607  1.000000  1.000243  1.000729  1.000614  1.000491  1.000000  1.000245  1.000245  1.000123  1.000614  1.000123 
dram[5]:  1.000244  1.000122  1.000735  1.000490  1.000121  1.000000  1.000364  1.000121  1.000000  1.000245  1.000123  1.000368  1.000491  1.000245  1.000491  1.000982 
dram[6]:  1.000000  1.000000  1.000981  1.000123  1.000121  1.000000  1.000364  1.000607  1.000368  1.000123  1.000368  1.000859  1.000123  1.000000  1.000737  1.000246 
dram[7]:  1.000366  1.000244  1.000981  1.000000  1.000243  1.000243  1.000485  1.000121  1.000491  1.000613  1.000123  1.000123  1.000491  1.000246  1.000245  1.000614 
dram[8]:  1.000245  1.000245  1.000000  1.000000  1.000000  1.000000  1.000490  1.000000  1.000000  1.000000  1.000490  1.000245  1.000246  1.000246  1.000495  1.000494 
dram[9]:  1.000245  1.000245  1.000000  1.000488  1.000242  1.000242  1.000000  1.000245  1.002233  1.000495  1.000245  1.000490  1.000245  1.000246  1.000000  1.000739 
dram[10]:  1.000000  1.000000  1.000489  1.000000  1.000242  1.000000  1.000245  1.000246  1.000494  1.000247  1.000245  1.000000  1.000000  1.000246  1.000247  1.000247 
dram[11]:  1.000737  1.000738  1.000000  1.000244  1.000242  1.000000  1.000491  1.000490  1.000494  1.000494  1.000246  1.000244  1.000245  1.000246  1.000000  1.000247 
dram[12]:  1.000245  1.000245  1.000000  1.000000  1.000000  1.000241  1.000245  1.000491  1.000742  1.000493  1.000245  1.000246  1.000245  1.000490  1.000495  1.000248 
dram[13]:  1.000245  1.000000  1.000000  1.000000  1.000242  1.000000  1.000245  1.000000  1.000248  1.000247  1.000491  1.000246  1.000245  1.000245  1.000000  1.000000 
dram[14]:  1.000490  1.000490  1.000735  1.000000  1.000241  1.000483  1.000246  1.000000  1.000495  1.000493  1.000000  1.000000  1.000737  1.000245  1.000247  1.000494 
dram[15]:  1.000000  1.000000  1.000490  1.000245  1.000483  1.000725  1.000000  1.000492  1.000000  1.000000  1.000245  1.000000  1.000491  1.000000  1.000494  1.000494 
dram[16]:  1.000000  1.000000  1.000247  1.000000  1.000490  1.000000  1.000484  1.000242  1.000000  1.000245  1.000000  1.000000  1.000000  1.000247  1.000491  1.000246 
dram[17]:  1.000000  1.000485  1.000247  1.000247  1.000000  1.000000  1.000241  1.000242  1.000489  1.001227  1.000248  1.000495  1.000495  1.000246  1.000491  1.000246 
dram[18]:  1.000000  1.000485  1.000494  1.000247  1.000000  1.000000  1.000242  1.000242  1.000245  1.000245  1.000247  1.000247  1.000000  1.000000  1.000000  1.000246 
dram[19]:  1.000000  1.000727  1.000742  1.000000  1.000245  1.000491  1.000242  1.000968  1.000246  1.000244  1.000494  1.000494  1.000000  1.000247  1.000491  1.000246 
dram[20]:  1.000486  1.000243  1.000000  1.000246  1.000245  1.000245  1.000000  1.000483  1.000491  1.000737  1.000742  1.000493  1.000495  1.000495  1.000245  1.000490 
dram[21]:  1.000000  1.000000  1.000000  1.000492  1.000245  1.000245  1.000484  1.000242  1.000491  1.000246  1.000000  1.000000  1.000000  1.000000  1.000245  1.000245 
dram[22]:  1.000243  1.000000  1.000740  1.000492  1.000246  1.000000  1.000242  1.000241  1.000000  1.000246  1.000000  1.000247  1.000247  1.000494  1.000000  1.000489 
dram[23]:  1.000488  1.000000  1.000000  1.000000  1.000000  1.000246  1.000483  1.000725  1.000000  1.000491  1.000000  1.000000  1.000247  1.000000  1.000490  1.000490 
average row locality = 2091684/2091080 = 1.000289
number of total memory accesses made:
dram[0]:         0         0         0         0         0         0         0         0         0         0         0         0         0         0         0         0 
dram[1]:         0         0         0         0         0         0         0         0         0         0         0         0         0         0         0         0 
dram[2]:         0         0         0         0         0         0         0         0         0         0         0         0         0         0         0         0 
dram[3]:         0         0         0         0         0         0         0         0         0         0         0         0         0         0         0         0 
dram[4]:         0         0         0         0         0         0         0         0         0         0         0         0         0         0         0         0 
dram[5]:         0         0         0         0         0         0         0         0         0         0         0         0         0         0         0         0 
dram[6]:         0         0         0         0         0         0         0         0         0         0         0         0         0         0         0         0 
dram[7]:         0         0         0         0         0         0         0         0         0         0         0         0         0         0         0         0 
dram[8]:         0         0         0         0         0         0         0         0         0         0         0         0         0         0         0         0 
dram[9]:         0         0         0         0         0         0         0         0         0         0         0         0         0         0         0         0 
dram[10]:         0         0         0         0         0         0         0         0         0         0         0         0         0         0         0         0 
dram[11]:         0         0         0         0         0         0         0         0         0         0         0         0         0         0         0         0 
dram[12]:         0         0         0         0         0         0         0         0         0         0         0         0         0         0         0         0 
dram[13]:         0         0         0         0         0         0         0         0         0         0         0         0         0         0         0         0 
dram[14]:         0         0         0         0         0         0         0         0         0         0         0         0         0         0         0         0 
dram[15]:         0         0         0         0         0         0         0         0         0         0         0         0         0         0         0         0 
dram[16]:         0         0         0         0         0         0         0         0         0         0         0         0         0         0         0         0 
dram[17]:         0         0         0         0         0         0         0         0         0         0         0         0         0         0         0         0 
dram[18]:         0         0         0         0         0         0         0         0         0         0         0         0         0         0         0         0 
dram[19]:         0         0         0         0         0         0         0         0         0         0         0         0         0         0         0         0 
dram[20]:         0         0         0         0         0         0         0         0         0         0         0         0         0         0         0         0 
dram[21]:         0         0         0         0         0         0         0         0         0         0         0         0         0         0         0         0 
dram[22]:         0         0         0         0         0         0         0         0         0         0         0         0         0         0         0         0 
dram[23]:         0         0         0         0         0         0         0         0         0         0         0         0         0         0         0         0 
total accesses: 0
min_bank_accesses = 0!
min_chip_accesses = 0!
number of total read accesses:
dram[0]:      8244      8248      8244      8248      8208      8200      8164      8168      8144      8160      8144      8160      8152      8152      8152      8152 
dram[1]:      8240      8256      8240      8256      8208      8200      8164      8160      8148      8160      8148      8160      8144      8152      8144      8152 
dram[2]:      8244      8248      8244      8248      8208      8200      8168      8160      8152      8160      8152      8160      8152      8152      8152      8152 
dram[3]:      8236      8248      8236      8248      8204      8200      8164      8160      8140      8156      8144      8156      8144      8152      8144      8152 
dram[4]:      8240      8252      8240      8252      8192      8208      8160      8164      8148      8152      8144      8152      8148      8160      8148      8160 
dram[5]:      8248      8256      8248      8256      8200      8208      8160      8168      8152      8152      8152      8152      8144      8160      8144      8160 
dram[6]:      8240      8248      8240      8248      8196      8208      8156      8168      8148      8152      8148      8152      8144      8156      8144      8156 
dram[7]:      8240      8248      8240      8248      8200      8208      8164      8168      8148      8144      8148      8152      8152      8160      8152      8160 
dram[8]:      4064      4080      4136      4144      4136      4152      4036      4040      4008      4024      4100      4108      4096      4104      4008      4024 
dram[9]:      4072      4088      4132      4148      4132      4132      4028      4040      4000      4024      4108      4104      4104      4108      4012      4024 
dram[10]:      4072      4080      4128      4144      4120      4136      4024      4032      4000      4024      4112      4112      4104      4112      4012      4032 
dram[11]:      4072      4080      4132      4136      4128      4144      4028      4040      4012      4024      4112      4116      4104      4100      4008      4032 
dram[12]:      4064      4088      4132      4140      4132      4148      4032      4032      4012      4024      4104      4108      4112      4104      4000      4024 
dram[13]:      4076      4088      4136      4152      4136      4144      4028      4032      4008      4024      4096      4104      4104      4108      4004      4024 
dram[14]:      4072      4088      4132      4140      4132      4136      4024      4032      4008      4032      4104      4100      4112      4112      4012      4024 
dram[15]:      4068      4080      4124      4136      4128      4144      4028      4032      4016      4032      4104      4116      4112      4112      4004      4024 
dram[16]:      4136      4144      4068      4080      4060      4064      4112      4128      4108      4108      4008      4024      4008      4024      4096      4104 
dram[17]:      4128      4148      4072      4088      4052      4064      4112      4116      4112      4104      4000      4024      4012      4024      4104      4108 
dram[18]:      4128      4144      4072      4080      4052      4056      4108      4112      4112      4112      4004      4024      4016      4032      4104      4116 
dram[19]:      4132      4136      4072      4080      4056      4064      4116      4116      4112      4116      4012      4024      4008      4032      4104      4100 
dram[20]:      4132      4140      4068      4088      4056      4064      4120      4124      4104      4108      4012      4024      4000      4024      4112      4104 
dram[21]:      4136      4152      4076      4088      4048      4056      4120      4120      4096      4104      4008      4024      4004      4024      4104      4108 
dram[22]:      4132      4144      4072      4088      4056      4056      4112      4112      4104      4100      4008      4032      4012      4024      4112      4116 
dram[23]:      4124      4136      4068      4080      4056      4056      4112      4120      4104      4112      4020      4032      4004      4024      4112      4112 
total dram reads = 2091684
bank skew: 8256/4000 = 2.06
chip skew: 130960/65244 = 2.01
number of total write accesses:
dram[0]:         0         0         0         0         0         0         0         0         0         0         0         0         0         0         0         0 
dram[1]:         0         0         0         0         0         0         0         0         0         0         0         0         0         0         0         0 
dram[2]:         0         0         0         0         0         0         0         0         0         0         0         0         0         0         0         0 
dram[3]:         0         0         0         0         0         0         0         0         0         0         0         0         0         0         0         0 
dram[4]:         0         0         0         0         0         0         0         0         0         0         0         0         0         0         0         0 
dram[5]:         0         0         0         0         0         0         0         0         0         0         0         0         0         0         0         0 
dram[6]:         0         0         0         0         0         0         0         0         0         0         0         0         0         0         0         0 
dram[7]:         0         0         0         0         0         0         0         0         0         0         0         0         0         0         0         0 
dram[8]:         0         0         0         0         0         0         0         0         0         0         0         0         0         0         0         0 
dram[9]:         0         0         0         0         0         0         0         0         0         0         0         0         0         0         0         0 
dram[10]:         0         0         0         0         0         0         0         0         0         0         0         0         0         0         0         0 
dram[11]:         0         0         0         0         0         0         0         0         0         0         0         0         0         0         0         0 
dram[12]:         0         0         0         0         0         0         0         0         0         0         0         0         0         0         0         0 
dram[13]:         0         0         0         0         0         0         0         0         0         0         0         0         0         0         0         0 
dram[14]:         0         0         0         0         0         0         0         0         0         0         0         0         0         0         0         0 
dram[15]:         0         0         0         0         0         0         0         0         0         0         0         0         0         0         0         0 
dram[16]:         0         0         0         0         0         0         0         0         0         0         0         0         0         0         0         0 
dram[17]:         0         0         0         0         0         0         0         0         0         0         0         0         0         0         0         0 
dram[18]:         0         0         0         0         0         0         0         0         0         0         0         0         0         0         0         0 
dram[19]:         0         0         0         0         0         0         0         0         0         0         0         0         0         0         0         0 
dram[20]:         0         0         0         0         0         0         0         0         0         0         0         0         0         0         0         0 
dram[21]:         0         0         0         0         0         0         0         0         0         0         0         0         0         0         0         0 
dram[22]:         0         0         0         0         0         0         0         0         0         0         0         0         0         0         0         0 
dram[23]:         0         0         0         0         0         0         0         0         0         0         0         0         0         0         0         0 
total dram writes = 0
min_bank_accesses = 0!
min_chip_accesses = 0!
average mf latency per bank:
dram[0]:        415       403       413       401      2770      1977       420       407       414       403       412       400       416       405       414       403
dram[1]:        415       402       413       401      2774      1979       424       406       417       403       416       401       415       403       413       401
dram[2]:        414       403       411       401      2771      1979       422       409       415       404       414       403       416       404       414       403
dram[3]:        416       402       413       401      2773      1975       420       406       414       403       412       402       417       405       415       403
dram[4]:        416       404       414       402      2780      1977       422       405       415       403       413       401       417       403       416       401
dram[5]:        414       404       412       402      2779      1977       422       407       416       407       414       403       416       402       414       400
dram[6]:        416       403       413       401      2783      1978       424       406       419       405       415       403       415       405       413       403
dram[7]:        416       405       414       403      2777      1978       421       405       415       405       414       402       417       407       415       405
dram[8]:        394       384       394       384       393       383       404       388       393       382       392       384       397       383       394       383
dram[9]:        393       383       392       385       393       385       404       389       394       385       395       386       396       383       392       382
dram[10]:        392       382       395       383       395       384       406       388       396       383       395       385       393       385       392       383
dram[11]:        392       384       395       385       394       383       403       387       394       383       393       385       393       387       394       384
dram[12]:        394       382       393       383       393       386       405       388       392       382       394       382       395       385       394       384
dram[13]:        393       383       393       381       395       385       407       388       394       383       396       383       393       384       393       382
dram[14]:        391       383       393       383       396       385       405       390       393       383       394       387       392       384       394       383
dram[15]:        393       382       395       383       395       383       404       387       392       382       392       385       393       384       396       384
dram[16]:        394       385       394       384      1957      3501       400       389       393       385       394       382       394       383       397       384
dram[17]:        393       385       394       383      1961      3497       400       391       394       387       394       383       392       381       396       384
dram[18]:        395       383       392       383      1961      3505       403       390       396       385       397       383       392       383       394       386
dram[19]:        395       386       393       384      1955      3497       400       389       392       386       395       384       394       385       394       388
dram[20]:        393       384       394       383      1959      3505       399       392       394       384       393       382       394       384       396       386
dram[21]:        394       382       393       384      1966      3512       402       391       398       385       395       383       394       382       394       385
dram[22]:        394       383       391       383      1958      3512       401       393       395       386       394       384       395       384       393       385
dram[23]:        395       384       394       383      1957      3510       399       391       394       385       393       383       396       383       395       386
maximum mf latency per bank:
dram[0]:       1233      1237      1161      1190      1101      1077      1183      1199      1033      1229      1229      1219      1195      1075      1197      1103
dram[1]:       1202      1244      1287      1009      1157      1148      1229       982      1275      1159      1360      1239      1227      1234      1258      1157
dram[2]:       1347      1078      1026      1101      1213      1156      1355      1140      1240      1163      1192      1242      1251      1213      1183      1234
dram[3]:       1236      1182      1142      1171      1047      1067      1075      1194      1226      1126      1277      1157      1203       961      1150      1108
dram[4]:       1223      1185      1195      1077      1215      1163      1055      1139      1134      1125      1084      1137      1142      1120      1096      1087
dram[5]:       1239      1107      1041      1111      1171      1275      1252      1116      1317      1223      1209      1304      1206      1273      1197      1276
dram[6]:       1084       927      1141       879      1233      1153      1184      1222      1269       949      1380      1115      1188      1102      1245      1112
dram[7]:       1181      1178      1198      1061      1229      1056      1149      1106      1024      1239      1152      1206      1211      1114      1191      1191
dram[8]:        604       626       695       584       605       578       650       635       678       559       720       603       608       605       677       709
dram[9]:        669       662       629       625       621       686       657       635       628       678       638       644       642       590       632       673
dram[10]:        631       668       693       512       663       579       605       711       636       587       670       580       703       487       652       598
dram[11]:        645       568       702       503       703       539       669       759       570       693       571       651       700       582       620       622
dram[12]:        689       657       624       634       604       668       620       685       538       675       564       554       661       614       635       624
dram[13]:        715       623       646       480       692       512       698       594       644       714       684       605       763       544       624       692
dram[14]:        655       710       688       539       731       640       531       583       648       656       701       673       572       585       600       704
dram[15]:        619       688       606       595       723       512       578       701       669       574       668       610       646       562       671       642
dram[16]:        670       604       588       614       679       611       605       551       711       535       650       590       600       697       589       595
dram[17]:        654       526       546       652       651       689       663       680       726       643       601       724       608       699       694       585
dram[18]:        763       631       587       663       665       757       632       562       674       621       693       624       656       572       720       516
dram[19]:        644       514       670       570       577       680       639       632       544       668       568       691       660       602       641       565
dram[20]:        631       607       690       670       605       685       618       662       587       601       573       619       622       619       662       628
dram[21]:        743       504       760       537       720       599       582       512       674       560       646       712       758       646       741       607
dram[22]:        674       597       545       743       568       695       724       598       664       629       642       672       628       705       630       575
dram[23]:        646       650       660       659       611       688       710       602       690       646       660       580       648       686       681       584
Memory Partition 0: 
Cache L2_bank_000:
MSHR contents

Cache L2_bank_001:
MSHR contents

In Dram Latency Queue (total = 0): 
DRAM[0]: 16 bks, busW=16 BL=2 CL=12, tRRD=3 tCCD=1, tRCD=12 tRAS=28 tRP=12 tRC=40
n_cmd=792650 n_nop=449312 n_act=130891 n_pre=130875 n_ref_event=0 n_req=130940 n_rd=130940 n_rd_L2_A=0 n_write=0 n_wr_bk=0 bw_util=0.1652
n_activity=784232 dram_eff=0.167
bk0: 8200a 533215i bk1: 8208a 531179i bk2: 8160a 533620i bk3: 8172a 533457i bk4: 8244a 532215i bk5: 8248a 530748i bk6: 8244a 531451i bk7: 8248a 530026i bk8: 8152a 536025i bk9: 8152a 533046i bk10: 8152a 535642i bk11: 8152a 532088i bk12: 8152a 535616i bk13: 8152a 534918i bk14: 8152a 535609i bk15: 8152a 533349i 

------------------------------------------------------------------------

Row_Buffer_Locality = 0.000374
Row_Buffer_Locality_read = 0.000374
Row_Buffer_Locality_write = -nan
Bank_Level_Parallism = 5.634386
Bank_Level_Parallism_Col = 2.409747
Bank_Level_Parallism_Ready = 1.000031
write_to_read_ratio_blp_rw_average = 0.000000
GrpLevelPara = 2.065336 

BW Util details:
bwutil = 0.165193 
total_CMD = 792650 
util_bw = 130940 
Wasted_Col = 535106 
Wasted_Row = 93777 
Idle = 32827 

BW Util Bottlenecks: 
RCDc_limit = 1283770 
RCDWRc_limit = 0 
WTRc_limit = 0 
RTWc_limit = 0 
CCDLc_limit = 57302 
rwq = 0 
CCDLc_limit_alone = 57302 
WTRc_limit_alone = 0 
RTWc_limit_alone = 0 

Commands details: 
total_CMD = 792650 
n_nop = 449312 
Read = 130940 
Write = 0 
L2_Alloc = 0 
L2_WB = 0 
n_act = 130891 
n_pre = 130875 
n_ref = 0 
n_req = 130940 
total_req = 130940 

Dual Bus Interface Util: 
issued_total_row = 261766 
issued_total_col = 130940 
Row_Bus_Util =  0.330242 
CoL_Bus_Util = 0.165193 
Either_Row_CoL_Bus_Util = 0.433152 
Issued_on_Two_Bus_Simul_Util = 0.062282 
issued_two_Eff = 0.143788 
queue_avg = 1.394390 


dram_util_bins: 0 0 0 0 0 0 0 0 0 0
dram_eff_bins: 0 0 0 0 0 0 0 0 0 0
mrqq: max=64 avg=1.39439
Memory Partition 1: 
Cache L2_bank_002:
MSHR contents

Cache L2_bank_003:
MSHR contents

In Dram Latency Queue (total = 0): 
DRAM[1]: 16 bks, busW=16 BL=2 CL=12, tRRD=3 tCCD=1, tRCD=12 tRAS=28 tRP=12 tRC=40
n_cmd=792650 n_nop=449259 n_act=130889 n_pre=130873 n_ref_event=0 n_req=130932 n_rd=130932 n_rd_L2_A=0 n_write=0 n_wr_bk=0 bw_util=0.1652
n_activity=784232 dram_eff=0.167
bk0: 8200a 533842i bk1: 8208a 532744i bk2: 8160a 532871i bk3: 8168a 531594i bk4: 8248a 532282i bk5: 8248a 531388i bk6: 8244a 532105i bk7: 8248a 529823i bk8: 8148a 535770i bk9: 8152a 533866i bk10: 8148a 535514i bk11: 8152a 533027i bk12: 8152a 534145i bk13: 8152a 535250i bk14: 8152a 534164i bk15: 8152a 534159i 

------------------------------------------------------------------------

Row_Buffer_Locality = 0.000328
Row_Buffer_Locality_read = 0.000328
Row_Buffer_Locality_write = -nan
Bank_Level_Parallism = 5.642907
Bank_Level_Parallism_Col = 2.411360
Bank_Level_Parallism_Ready = 1.000015
write_to_read_ratio_blp_rw_average = 0.000000
GrpLevelPara = 2.064142 

[...]
Bank_Level_Parallism_Ready = 1.004933
write_to_read_ratio_blp_rw_average = 0.000000
GrpLevelPara = 1.353853 

BW Util details:
bwutil = 0.072115 
total_CMD = 1810165 
util_bw = 130540 
Wasted_Col = 514549 
Wasted_Row = 191404 
Idle = 973672 

BW Util Bottlenecks: 
RCDc_limit = 728424 
RCDWRc_limit = 0 
WTRc_limit = 0 
RTWc_limit = 0 
CCDLc_limit = 67123 
rwq = 0 
CCDLc_limit_alone = 67123 
WTRc_limit_alone = 0 
RTWc_limit_alone = 0 

Commands details: 
total_CMD = 1810165 
n_nop = 1554197 
Read = 130540 
Write = 0 
L2_Alloc = 0 
L2_WB = 0 
n_act = 66683 
n_pre = 66667 
n_ref = 0 
n_req = 130546 
total_req = 130540 

Dual Bus Interface Util: 
issued_total_row = 133350 
issued_total_col = 130540 
Row_Bus_Util =  0.073667 
CoL_Bus_Util = 0.072115 
Either_Row_CoL_Bus_Util = 0.141406 
Issued_on_Two_Bus_Simul_Util = 0.004376 
issued_two_Eff = 0.030949 
queue_avg = 0.279198 


dram_util_bins: 0 0 0 0 0 0 0 0 0 0
dram_eff_bins: 0 0 0 0 0 0 0 0 0 0
mrqq: max=49 avg=0.279198
Memory Partition 20: 
Cache L2_bank_040:
MSHR contents

Cache L2_bank_041:
MSHR contents

In Dram Latency Queue (total = 0): 
DRAM[20]: 16 bks, busW=16 BL=2 CL=12, tRRD=3 tCCD=1, tRCD=12 tRAS=28 tRP=12 tRC=40
n_cmd=1810165 n_nop=1553940 n_act=66689 n_pre=66673 n_ref_event=0 n_req=130570 n_rd=130564 n_rd_L2_A=0 n_write=0 n_wr_bk=0 bw_util=0.07213
n_activity=1009166 dram_eff=0.1294
bk0: 8248a 1692793i bk1: 8256a 1692943i bk2: 8100a 1695160i bk3: 8120a 1695187i bk4: 8144a 1695045i bk5: 8136a 1694089i bk6: 8284a 1693141i bk7: 8288a 1691351i bk8: 8156a 1694506i bk9: 8140a 1695010i bk10: 8084a 1695226i bk11: 8112a 1694000i bk12: 8096a 1695478i bk13: 8084a 1695463i bk14: 8156a 1694664i bk15: 8160a 1694264i 

------------------------------------------------------------------------

Row_Buffer_Locality = 0.489224
Row_Buffer_Locality_read = 0.489224
Row_Buffer_Locality_write = -nan
Bank_Level_Parallism = 2.369221
Bank_Level_Parallism_Col = 1.470160
Bank_Level_Parallism_Ready = 1.005239
write_to_read_ratio_blp_rw_average = 0.000000
GrpLevelPara = 1.351910 

BW Util details:
bwutil = 0.072128 
total_CMD = 1810165 
util_bw = 130564 
Wasted_Col = 515848 
Wasted_Row = 191367 
Idle = 972386 

BW Util Bottlenecks: 
RCDc_limit = 729061 
RCDWRc_limit = 0 
WTRc_limit = 0 
RTWc_limit = 0 
CCDLc_limit = 67026 
rwq = 0 
CCDLc_limit_alone = 67026 
WTRc_limit_alone = 0 
RTWc_limit_alone = 0 

Commands details: 
total_CMD = 1810165 
n_nop = 1553940 
Read = 130564 
Write = 0 
L2_Alloc = 0 
L2_WB = 0 
n_act = 66689 
n_pre = 66673 
n_ref = 0 
n_req = 130570 
total_req = 130564 

Dual Bus Interface Util: 
issued_total_row = 133362 
issued_total_col = 130564 
Row_Bus_Util =  0.073674 
CoL_Bus_Util = 0.072128 
Either_Row_CoL_Bus_Util = 0.141548 
Issued_on_Two_Bus_Simul_Util = 0.004254 
issued_two_Eff = 0.030056 
queue_avg = 0.278820 


dram_util_bins: 0 0 0 0 0 0 0 0 0 0
dram_eff_bins: 0 0 0 0 0 0 0 0 0 0
mrqq: max=50 avg=0.27882
Memory Partition 21: 
Cache L2_bank_042:
MSHR contents

Cache L2_bank_043:
MSHR contents

In Dram Latency Queue (total = 0): 
DRAM[21]: 16 bks, busW=16 BL=2 CL=12, tRRD=3 tCCD=1, tRCD=12 tRAS=28 tRP=12 tRC=40
n_cmd=1810165 n_nop=1554048 n_act=66695 n_pre=66679 n_ref_event=0 n_req=130498 n_rd=130492 n_rd_L2_A=0 n_write=0 n_wr_bk=0 bw_util=0.07209
n_activity=1008954 dram_eff=0.1293
bk0: 8240a 1693167i bk1: 8244a 1692762i bk2: 8100a 1694216i bk3: 8112a 1694595i bk4: 8140a 1694338i bk5: 8144a 1694197i bk6: 8276a 1692316i bk7: 8284a 1692263i bk8: 8152a 1694175i bk9: 8132a 1694281i bk10: 8080a 1695524i bk11: 8096a 1695547i bk12: 8096a 1695554i bk13: 8084a 1694779i bk14: 8152a 1694579i bk15: 8160a 1693847i 

------------------------------------------------------------------------

Row_Buffer_Locality = 0.488896
Row_Buffer_Locality_read = 0.488896
Row_Buffer_Locality_write = -nan
Bank_Level_Parallism = 2.375293
Bank_Level_Parallism_Col = 1.473501
Bank_Level_Parallism_Ready = 1.005387
write_to_read_ratio_blp_rw_average = 0.000000
GrpLevelPara = 1.354214 

BW Util details:
bwutil = 0.072088 
total_CMD = 1810165 
util_bw = 130492 
Wasted_Col = 514396 
Wasted_Row = 191637 
Idle = 973640 

BW Util Bottlenecks: 
RCDc_limit = 728938 
RCDWRc_limit = 0 
WTRc_limit = 0 
RTWc_limit = 0 
CCDLc_limit = 66816 
rwq = 0 
CCDLc_limit_alone = 66816 
WTRc_limit_alone = 0 
RTWc_limit_alone = 0 

Commands details: 
total_CMD = 1810165 
n_nop = 1554048 
Read = 130492 
Write = 0 
L2_Alloc = 0 
L2_WB = 0 
n_act = 66695 
n_pre = 66679 
n_ref = 0 
n_req = 130498 
total_req = 130492 

Dual Bus Interface Util: 
issued_total_row = 133374 
issued_total_col = 130492 
Row_Bus_Util =  0.073681 
CoL_Bus_Util = 0.072088 
Either_Row_CoL_Bus_Util = 0.141488 
Issued_on_Two_Bus_Simul_Util = 0.004281 
issued_two_Eff = 0.030256 
queue_avg = 0.281596 


dram_util_bins: 0 0 0 0 0 0 0 0 0 0
dram_eff_bins: 0 0 0 0 0 0 0 0 0 0
mrqq: max=54 avg=0.281596
Memory Partition 22: 
Cache L2_bank_044:
MSHR contents

Cache L2_bank_045:
MSHR contents

In Dram Latency Queue (total = 0): 
DRAM[22]: 16 bks, busW=16 BL=2 CL=12, tRRD=3 tCCD=1, tRCD=12 tRAS=28 tRP=12 tRC=40
n_cmd=1810165 n_nop=1554163 n_act=66707 n_pre=66691 n_ref_event=0 n_req=130546 n_rd=130540 n_rd_L2_A=0 n_write=0 n_wr_bk=0 bw_util=0.07211
n_activity=1009658 dram_eff=0.1293
bk0: 8240a 1693618i bk1: 8232a 1692878i bk2: 8104a 1695538i bk3: 8128a 1694580i bk4: 8152a 1695580i bk5: 8140a 1694615i bk6: 8268a 1692519i bk7: 8288a 1691598i bk8: 8156a 1694587i bk9: 8160a 1694899i bk10: 8076a 1695414i bk11: 8096a 1694759i bk12: 8080a 1694958i bk13: 8084a 1695001i bk14: 8164a 1695411i bk15: 8172a 1693793i 

------------------------------------------------------------------------

Row_Buffer_Locality = 0.488992
Row_Buffer_Locality_read = 0.488992
Row_Buffer_Locality_write = -nan
Bank_Level_Parallism = 2.367553
Bank_Level_Parallism_Col = 1.470046
Bank_Level_Parallism_Ready = 1.004964
write_to_read_ratio_blp_rw_average = 0.000000
GrpLevelPara = 1.354323 

BW Util details:
bwutil = 0.072115 
total_CMD = 1810165 
util_bw = 130540 
Wasted_Col = 515976 
Wasted_Row = 191240 
Idle = 972409 

BW Util Bottlenecks: 
RCDc_limit = 729453 
RCDWRc_limit = 0 
WTRc_limit = 0 
RTWc_limit = 0 
CCDLc_limit = 66790 
rwq = 0 
CCDLc_limit_alone = 66790 
WTRc_limit_alone = 0 
RTWc_limit_alone = 0 

Commands details: 
total_CMD = 1810165 
n_nop = 1554163 
Read = 130540 
Write = 0 
L2_Alloc = 0 
L2_WB = 0 
n_act = 66707 
n_pre = 66691 
n_ref = 0 
n_req = 130546 
total_req = 130540 

Dual Bus Interface Util: 
issued_total_row = 133398 
issued_total_col = 130540 
Row_Bus_Util =  0.073694 
CoL_Bus_Util = 0.072115 
Either_Row_CoL_Bus_Util = 0.141425 
Issued_on_Two_Bus_Simul_Util = 0.004384 
issued_two_Eff = 0.031000 
queue_avg = 0.280419 


dram_util_bins: 0 0 0 0 0 0 0 0 0 0
dram_eff_bins: 0 0 0 0 0 0 0 0 0 0
mrqq: max=52 avg=0.280419
Memory Partition 23: 
Cache L2_bank_046:
MSHR contents

Cache L2_bank_047:
MSHR contents

In Dram Latency Queue (total = 0): 
DRAM[23]: 16 bks, busW=16 BL=2 CL=12, tRRD=3 tCCD=1, tRCD=12 tRAS=28 tRP=12 tRC=40
n_cmd=1810165 n_nop=1554060 n_act=66696 n_pre=66680 n_ref_event=0 n_req=130498 n_rd=130492 n_rd_L2_A=0 n_write=0 n_wr_bk=0 bw_util=0.07209
n_activity=1008475 dram_eff=0.1294
bk0: 8224a 1693009i bk1: 8232a 1693504i bk2: 8104a 1694753i bk3: 8124a 1695444i bk4: 8156a 1694510i bk5: 8136a 1694920i bk6: 8272a 1692477i bk7: 8284a 1691922i bk8: 8160a 1693883i bk9: 8148a 1694815i bk10: 8084a 1695246i bk11: 8088a 1694832i bk12: 8080a 1695683i bk13: 8080a 1695515i bk14: 8156a 1694632i bk15: 8164a 1694589i 

------------------------------------------------------------------------

Row_Buffer_Locality = 0.488888
Row_Buffer_Locality_read = 0.488888
Row_Buffer_Locality_write = -nan
Bank_Level_Parallism = 2.372264
Bank_Level_Parallism_Col = 1.471615
Bank_Level_Parallism_Ready = 1.005832
write_to_read_ratio_blp_rw_average = 0.000000
GrpLevelPara = 1.353411 

BW Util details:
bwutil = 0.072088 
total_CMD = 1810165 
util_bw = 130492 
Wasted_Col = 515219 
Wasted_Row = 190367 
Idle = 974087 

BW Util Bottlenecks: 
RCDc_limit = 729225 
RCDWRc_limit = 0 
WTRc_limit = 0 
RTWc_limit = 0 
CCDLc_limit = 66739 
rwq = 0 
CCDLc_limit_alone = 66739 
WTRc_limit_alone = 0 
RTWc_limit_alone = 0 

Commands details: 
total_CMD = 1810165 
n_nop = 1554060 
Read = 130492 
Write = 0 
L2_Alloc = 0 
L2_WB = 0 
n_act = 66696 
n_pre = 66680 
n_ref = 0 
n_req = 130498 
total_req = 130492 

Dual Bus Interface Util: 
issued_total_row = 133376 
issued_total_col = 130492 
Row_Bus_Util =  0.073682 
CoL_Bus_Util = 0.072088 
Either_Row_CoL_Bus_Util = 0.141482 
Issued_on_Two_Bus_Simul_Util = 0.004289 
issued_two_Eff = 0.030312 
queue_avg = 0.278172 


dram_util_bins: 0 0 0 0 0 0 0 0 0 0
dram_eff_bins: 0 0 0 0 0 0 0 0 0 0
mrqq: max=49 avg=0.278172

========= L2 cache stats =========
L2_cache_bank[0]: Access = 142110, Miss = 131172, Miss_rate = 0.923, Pending_hits = 0, Reservation_fails = 0
L2_cache_bank[1]: Access = 502851, Miss = 130708, Miss_rate = 0.260, Pending_hits = 50, Reservation_fails = 841
L2_cache_bank[2]: Access = 142149, Miss = 131144, Miss_rate = 0.923, Pending_hits = 0, Reservation_fails = 0
L2_cache_bank[3]: Access = 502933, Miss = 130720, Miss_rate = 0.260, Pending_hits = 48, Reservation_fails = 965
L2_cache_bank[4]: Access = 142157, Miss = 131136, Miss_rate = 0.922, Pending_hits = 0, Reservation_fails = 0
L2_cache_bank[5]: Access = 503098, Miss = 130736, Miss_rate = 0.260, Pending_hits = 55, Reservation_fails = 914
L2_cache_bank[6]: Access = 142095, Miss = 131144, Miss_rate = 0.923, Pending_hits = 0, Reservation_fails = 0
L2_cache_bank[7]: Access = 502942, Miss = 130680, Miss_rate = 0.260, Pending_hits = 48, Reservation_fails = 810
L2_cache_bank[8]: Access = 142046, Miss = 131180, Miss_rate = 0.924, Pending_hits = 0, Reservation_fails = 0
L2_cache_bank[9]: Access = 502898, Miss = 130684, Miss_rate = 0.260, Pending_hits = 52, Reservation_fails = 1099
L2_cache_bank[10]: Access = 142152, Miss = 131164, Miss_rate = 0.923, Pending_hits = 0, Reservation_fails = 0
L2_cache_bank[11]: Access = 502945, Miss = 130720, Miss_rate = 0.260, Pending_hits = 49, Reservation_fails = 871
L2_cache_bank[12]: Access = 142143, Miss = 131124, Miss_rate = 0.922, Pending_hits = 0, Reservation_fails = 0
L2_cache_bank[13]: Access = 502956, Miss = 130688, Miss_rate = 0.260, Pending_hits = 49, Reservation_fails = 1265
L2_cache_bank[14]: Access = 142241, Miss = 131160, Miss_rate = 0.922, Pending_hits = 0, Reservation_fails = 0
L2_cache_bank[15]: Access = 502919, Miss = 130676, Miss_rate = 0.260, Pending_hits = 50, Reservation_fails = 1362
L2_cache_bank[16]: Access = 71005, Miss = 65312, Miss_rate = 0.920, Pending_hits = 0, Reservation_fails = 0
L2_cache_bank[17]: Access = 71490, Miss = 65104, Miss_rate = 0.911, Pending_hits = 19, Reservation_fails = 28
L2_cache_bank[18]: Access = 71118, Miss = 65336, Miss_rate = 0.919, Pending_hits = 0, Reservation_fails = 0
L2_cache_bank[19]: Access = 71507, Miss = 65132, Miss_rate = 0.911, Pending_hits = 25, Reservation_fails = 54
L2_cache_bank[20]: Access = 71067, Miss = 65320, Miss_rate = 0.919, Pending_hits = 0, Reservation_fails = 0
L2_cache_bank[21]: Access = 71513, Miss = 65100, Miss_rate = 0.910, Pending_hits = 25, Reservation_fails = 526
L2_cache_bank[22]: Access = 71157, Miss = 65344, Miss_rate = 0.918, Pending_hits = 0, Reservation_fails = 0
L2_cache_bank[23]: Access = 71481, Miss = 65152, Miss_rate = 0.911, Pending_hits = 24, Reservation_fails = 427
L2_cache_bank[24]: Access = 71129, Miss = 65332, Miss_rate = 0.919, Pending_hits = 0, Reservation_fails = 0
L2_cache_bank[25]: Access = 71454, Miss = 65144, Miss_rate = 0.912, Pending_hits = 24, Reservation_fails = 0
L2_cache_bank[26]: Access = 71102, Miss = 65312, Miss_rate = 0.919, Pending_hits = 0, Reservation_fails = 0
L2_cache_bank[27]: Access = 71474, Miss = 65120, Miss_rate = 0.911, Pending_hits = 26, Reservation_fails = 5
L2_cache_bank[28]: Access = 71104, Miss = 65348, Miss_rate = 0.919, Pending_hits = 0, Reservation_fails = 0
L2_cache_bank[29]: Access = 71597, Miss = 65128, Miss_rate = 0.910, Pending_hits = 25, Reservation_fails = 9
L2_cache_bank[30]: Access = 71090, Miss = 65316, Miss_rate = 0.919, Pending_hits = 0, Reservation_fails = 0
L2_cache_bank[31]: Access = 71475, Miss = 65116, Miss_rate = 0.911, Pending_hits = 20, Reservation_fails = 0
L2_cache_bank[32]: Access = 71098, Miss = 65312, Miss_rate = 0.919, Pending_hits = 0, Reservation_fails = 0
L2_cache_bank[33]: Access = 235384, Miss = 65168, Miss_rate = 0.277, Pending_hits = 51, Reservation_fails = 571
L2_cache_bank[34]: Access = 71093, Miss = 65336, Miss_rate = 0.919, Pending_hits = 0, Reservation_fails = 0
L2_cache_bank[35]: Access = 235442, Miss = 65208, Miss_rate = 0.277, Pending_hits = 49, Reservation_fails = 805
L2_cache_bank[36]: Access = 71109, Miss = 65316, Miss_rate = 0.919, Pending_hits = 0, Reservation_fails = 0
L2_cache_bank[37]: Access = 235491, Miss = 65168, Miss_rate = 0.277, Pending_hits = 36, Reservation_fails = 54
L2_cache_bank[38]: Access = 71133, Miss = 65332, Miss_rate = 0.918, Pending_hits = 0, Reservation_fails = 0
L2_cache_bank[39]: Access = 235414, Miss = 65208, Miss_rate = 0.277, Pending_hits = 49, Reservation_fails = 184
L2_cache_bank[40]: Access = 71061, Miss = 65348, Miss_rate = 0.920, Pending_hits = 0, Reservation_fails = 0
L2_cache_bank[41]: Access = 235386, Miss = 65216, Miss_rate = 0.277, Pending_hits = 24, Reservation_fails = 799
L2_cache_bank[42]: Access = 71116, Miss = 65316, Miss_rate = 0.918, Pending_hits = 0, Reservation_fails = 0
L2_cache_bank[43]: Access = 235426, Miss = 65176, Miss_rate = 0.277, Pending_hits = 24, Reservation_fails = 849
L2_cache_bank[44]: Access = 71047, Miss = 65344, Miss_rate = 0.920, Pending_hits = 0, Reservation_fails = 0
L2_cache_bank[45]: Access = 235542, Miss = 65196, Miss_rate = 0.277, Pending_hits = 24, Reservation_fails = 741
L2_cache_bank[46]: Access = 71068, Miss = 65316, Miss_rate = 0.919, Pending_hits = 0, Reservation_fails = 0
L2_cache_bank[47]: Access = 235435, Miss = 65176, Miss_rate = 0.277, Pending_hits = 29, Reservation_fails = 1002
L2_total_cache_accesses = 8753643
L2_total_cache_misses = 4182588
L2_total_cache_miss_rate = 0.4778
L2_total_cache_pending_hits = 875
L2_total_cache_reservation_fails = 14181
L2_total_cache_breakdown:
	L2_cache_stats_breakdown[GLOBAL_ACC_R][HIT] = 14122
	L2_cache_stats_breakdown[GLOBAL_ACC_R][HIT_RESERVED] = 830
	L2_cache_stats_breakdown[GLOBAL_ACC_R][MISS] = 522726
	L2_cache_stats_breakdown[GLOBAL_ACC_R][RESERVATION_FAIL] = 14181
	L2_cache_stats_breakdown[GLOBAL_ACC_R][SECTOR_MISS] = 1568178
	L2_cache_stats_breakdown[GLOBAL_ACC_R][MSHR_HIT] = 830
	L2_cache_stats_breakdown[LOCAL_ACC_R][HIT] = 0
	L2_cache_stats_breakdown[LOCAL_ACC_R][HIT_RESERVED] = 0
	L2_cache_stats_breakdown[LOCAL_ACC_R][MISS] = 0
	L2_cache_stats_breakdown[LOCAL_ACC_R][RESERVATION_FAIL] = 0
	L2_cache_stats_breakdown[LOCAL_ACC_R][SECTOR_MISS] = 0
	L2_cache_stats_breakdown[LOCAL_ACC_R][MSHR_HIT] = 0
	L2_cache_stats_breakdown[CONST_ACC_R][HIT] = 0
	L2_cache_stats_breakdown[CONST_ACC_R][HIT_RESERVED] = 0
	L2_cache_stats_breakdown[CONST_ACC_R][MISS] = 0
	L2_cache_stats_breakdown[CONST_ACC_R][RESERVATION_FAIL] = 0
	L2_cache_stats_breakdown[CONST_ACC_R][SECTOR_MISS] = 0
	L2_cache_stats_breakdown[CONST_ACC_R][MSHR_HIT] = 0
	L2_cache_stats_breakdown[TEXTURE_ACC_R][HIT] = 0
	L2_cache_stats_breakdown[TEXTURE_ACC_R][HIT_RESERVED] = 0
	L2_cache_stats_breakdown[TEXTURE_ACC_R][MISS] = 0
	L2_cache_stats_breakdown[TEXTURE_ACC_R][RESERVATION_FAIL] = 0
	L2_cache_stats_breakdown[TEXTURE_ACC_R][SECTOR_MISS] = 0
	L2_cache_stats_breakdown[TEXTURE_ACC_R][MSHR_HIT] = 0
	L2_cache_stats_breakdown[GLOBAL_ACC_W][HIT] = 2097152
	L2_cache_stats_breakdown[GLOBAL_ACC_W][HIT_RESERVED] = 0
	L2_cache_stats_breakdown[GLOBAL_ACC_W][MISS] = 0
	L2_cache_stats_breakdown[GLOBAL_ACC_W][RESERVATION_FAIL] = 0
	L2_cache_stats_breakdown[GLOBAL_ACC_W][SECTOR_MISS] = 0
	L2_cache_stats_breakdown[GLOBAL_ACC_W][MSHR_HIT] = 0
	L2_cache_stats_breakdown[LOCAL_ACC_W][HIT] = 0
	L2_cache_stats_breakdown[LOCAL_ACC_W][HIT_RESERVED] = 0
	L2_cache_stats_breakdown[LOCAL_ACC_W][MISS] = 0
	L2_cache_stats_breakdown[LOCAL_ACC_W][RESERVATION_FAIL] = 0
	L2_cache_stats_breakdown[LOCAL_ACC_W][SECTOR_MISS] = 0
	L2_cache_stats_breakdown[LOCAL_ACC_W][MSHR_HIT] = 0
	L2_cache_stats_breakdown[L1_WRBK_ACC][HIT] = 0
	L2_cache_stats_breakdown[L1_WRBK_ACC][HIT_RESERVED] = 0
	L2_cache_stats_breakdown[L1_WRBK_ACC][MISS] = 0
	L2_cache_stats_breakdown[L1_WRBK_ACC][RESERVATION_FAIL] = 0
	L2_cache_stats_breakdown[L1_WRBK_ACC][SECTOR_MISS] = 0
	L2_cache_stats_breakdown[L1_WRBK_ACC][MSHR_HIT] = 0
	L2_cache_stats_breakdown[L2_WRBK_ACC][HIT] = 0
	L2_cache_stats_breakdown[L2_WRBK_ACC][HIT_RESERVED] = 0
	L2_cache_stats_breakdown[L2_WRBK_ACC][MISS] = 0
	L2_cache_stats_breakdown[L2_WRBK_ACC][RESERVATION_FAIL] = 0
	L2_cache_stats_breakdown[L2_WRBK_ACC][SECTOR_MISS] = 0
	L2_cache_stats_breakdown[L2_WRBK_ACC][MSHR_HIT] = 0
	L2_cache_stats_breakdown[INST_ACC_R][HIT] = 0
	L2_cache_stats_breakdown[INST_ACC_R][HIT_RESERVED] = 0
	L2_cache_stats_breakdown[INST_ACC_R][MISS] = 0
	L2_cache_stats_breakdown[INST_ACC_R][RESERVATION_FAIL] = 0
	L2_cache_stats_breakdown[INST_ACC_R][SECTOR_MISS] = 0
	L2_cache_stats_breakdown[INST_ACC_R][MSHR_HIT] = 0
	L2_cache_stats_breakdown[L1_WR_ALLOC_R][HIT] = 0
	L2_cache_stats_breakdown[L1_WR_ALLOC_R][HIT_RESERVED] = 0
	L2_cache_stats_breakdown[L1_WR_ALLOC_R][MISS] = 0
	L2_cache_stats_breakdown[L1_WR_ALLOC_R][RESERVATION_FAIL] = 0
	L2_cache_stats_breakdown[L1_WR_ALLOC_R][SECTOR_MISS] = 0
	L2_cache_stats_breakdown[L1_WR_ALLOC_R][MSHR_HIT] = 0
	L2_cache_stats_breakdown[L2_WR_ALLOC_R][HIT] = 0
	L2_cache_stats_breakdown[L2_WR_ALLOC_R][HIT_RESERVED] = 0
	L2_cache_stats_breakdown[L2_WR_ALLOC_R][MISS] = 0
	L2_cache_stats_breakdown[L2_WR_ALLOC_R][RESERVATION_FAIL] = 0
	L2_cache_stats_breakdown[L2_WR_ALLOC_R][SECTOR_MISS] = 0
	L2_cache_stats_breakdown[L2_WR_ALLOC_R][MSHR_HIT] = 0
	L2_cache_stats_breakdown[GLOBAL_ACC_R][TOTAL_ACCESS] = 2105856
	L2_cache_stats_breakdown[GLOBAL_ACC_W][TOTAL_ACCESS] = 2097152
L2_total_cache_reservation_fail_breakdown:
	L2_cache_stats_fail_breakdown[GLOBAL_ACC_R][MSHR_MERGE_ENRTY_FAIL] = 14181
L2_cache_data_port_util = 0.037
L2_cache_fill_port_util = 0.034

icnt_total_pkts_mem_to_simt=8753643
icnt_total_pkts_simt_to_mem=8753643
LD_mem_lat_dist  0 0 0 0 0 0 0 0 0 0 0 0 0 0 0 0 0 0 0 0 0 0 0 0 0 0 0
ST_mem_lat_dist  0 0 0 0 0 0 0 0 0 0 0 0 0 0 0 0 0 0 0 0 0 0 0 0 0 0 0
----------------------------Interconnect-DETAILS--------------------------------
Req_Network_injected_packets_num = 8753643
Req_Network_cycles = 2555527
Req_Network_injected_packets_per_cycle =       3.4254 
Req_Network_conflicts_per_cycle =       0.3371
Req_Network_conflicts_per_cycle_util =       0.3436
Req_Bank_Level_Parallism =       3.4916
Req_Network_in_buffer_full_per_cycle =       0.0000
Req_Network_in_buffer_avg_util =       0.0396
Req_Network_out_buffer_full_per_cycle =       0.0000
Req_Network_out_buffer_avg_util =       0.0714

Reply_Network_injected_packets_num = 8753643
Reply_Network_cycles = 2555527
Reply_Network_injected_packets_per_cycle =        3.4254
Reply_Network_conflicts_per_cycle =        2.3021
Reply_Network_conflicts_per_cycle_util =       2.3753
Reply_Bank_Level_Parallism =       3.5343
Reply_Network_in_buffer_full_per_cycle =       0.0000
Reply_Network_in_buffer_avg_util =       0.1708
Reply_Network_out_buffer_full_per_cycle =       0.0000
Reply_Network_out_buffer_avg_util =       0.0856
----------------------------END-of-Interconnect-DETAILS-------------------------


gpgpu_simulation_time = 0 days, 0 hrs, 54 min, 16 sec (3256 sec)
gpgpu_simulation_rate = 49637 (inst/sec)
gpgpu_simulation_rate = 784 (cycle/sec)
gpgpu_silicon_slowdown = 1530612x
GPGPU-Sim: synchronize waiting for inactive GPU simulation
GPGPU-Sim API: Stream Manager State
GPGPU-Sim: detected inactive GPU simulation thread
GPU Runtime: 3252.932438s
CPU Runtime: 1.241438s
Non-Matching CPU-GPU Outputs Beyond Error Threshold of 0.05 Percent: 0
GPGPU-Sim: *** exit detected ***
