nohup: ignoring input
GPGPU-Sim version 4.2.0 (build gpgpu-sim_git-commit-a4ce3fe-modified_616.0) configured with AccelWattch.
setup_environment succeeded
==============================
Running BFS ... Fri May  1 01:13:07 UTC 2026
==============================
--- BFS done. Key stats: ---
	L1D_total_cache_miss_rate = 0.4690
gpgpu_n_stall_shd_mem = 411908
gpu_tot_ipc =     167.8177
	L1D_total_cache_miss_rate = 0.4697
gpgpu_n_stall_shd_mem = 411908

==============================
Running NN ... Fri May  1 01:14:59 UTC 2026
==============================
--- NN done. Key stats: ---

==============================
Running HS ... Fri May  1 01:14:59 UTC 2026
==============================
--- HS done. Key stats: ---

==============================
Running BP ... Fri May  1 01:14:59 UTC 2026
==============================
--- BP done. Key stats: ---
	L1D_total_cache_miss_rate = 0.4079
gpgpu_n_stall_shd_mem = 74327
gpu_tot_ipc =    2133.5015
	L1D_total_cache_miss_rate = 0.3088
gpgpu_n_stall_shd_mem = 305684

==============================
Running GA ... Fri May  1 01:19:30 UTC 2026
==============================
--- GA done. Key stats: ---
	L1D_total_cache_miss_rate = 0.4759
gpgpu_n_stall_shd_mem = 419256
gpu_tot_ipc =     176.3648
	L1D_total_cache_miss_rate = 0.4759
gpgpu_n_stall_shd_mem = 419256

==============================
Running KMN ... Fri May  1 01:22:13 UTC 2026
==============================
--- KMN done. Key stats: ---

==============================
Running NN2 ... Fri May  1 01:22:13 UTC 2026
==============================
--- NN2 done. Key stats: ---

==============================
Running BFS2 ... Fri May  1 01:22:13 UTC 2026
==============================
--- BFS2 done. Key stats: ---

==============================
Running 3DC ... Fri May  1 01:22:13 UTC 2026
==============================
--- 3DC done. Key stats: ---
	L1D_total_cache_miss_rate = 0.4175
gpgpu_n_stall_shd_mem = 5776965
gpu_tot_ipc =     966.8748
	L1D_total_cache_miss_rate = 0.4175
gpgpu_n_stall_shd_mem = 5800017

==============================
ALL DONE — Fri May  1 01:52:44 UTC 2026

=== IPC SUMMARY ===
/workspace/results/baseline/3DC.log:gpu_tot_ipc =     826.4035
/workspace/results/baseline/3DC.log:gpu_tot_ipc =     911.4558
/workspace/results/baseline/3DC.log:gpu_tot_ipc =     955.2677
/workspace/results/baseline/3DC.log:gpu_tot_ipc =     962.6292
/workspace/results/baseline/3DC.log:gpu_tot_ipc =     983.0779
/workspace/results/baseline/3DC.log:gpu_tot_ipc =     988.2628
/workspace/results/baseline/3DC.log:gpu_tot_ipc =     981.0544
/workspace/results/baseline/3DC.log:gpu_tot_ipc =     983.0197
/workspace/results/baseline/3DC.log:gpu_tot_ipc =     982.6902
/workspace/results/baseline/3DC.log:gpu_tot_ipc =     979.3921
/workspace/results/baseline/3DC.log:gpu_tot_ipc =     975.1258
/workspace/results/baseline/3DC.log:gpu_tot_ipc =     978.4462
/workspace/results/baseline/3DC.log:gpu_tot_ipc =     974.2621
/workspace/results/baseline/3DC.log:gpu_tot_ipc =     973.2385
/workspace/results/baseline/3DC.log:gpu_tot_ipc =     978.0929
/workspace/results/baseline/3DC.log:gpu_tot_ipc =     975.7596
/workspace/results/baseline/3DC.log:gpu_tot_ipc =     974.0325
/workspace/results/baseline/3DC.log:gpu_tot_ipc =     975.4462
/workspace/results/baseline/3DC.log:gpu_tot_ipc =     975.8569
/workspace/results/baseline/3DC.log:gpu_tot_ipc =     976.1008
/workspace/results/baseline/3DC.log:gpu_tot_ipc =     979.3910
/workspace/results/baseline/3DC.log:gpu_tot_ipc =     979.2745
/workspace/results/baseline/3DC.log:gpu_tot_ipc =     972.6879
/workspace/results/baseline/3DC.log:gpu_tot_ipc =     971.4757
/workspace/results/baseline/3DC.log:gpu_tot_ipc =     971.9891
/workspace/results/baseline/3DC.log:gpu_tot_ipc =     969.2951
/workspace/results/baseline/3DC.log:gpu_tot_ipc =     970.0000
/workspace/results/baseline/3DC.log:gpu_tot_ipc =     968.8926
/workspace/results/baseline/3DC.log:gpu_tot_ipc =     966.9703
/workspace/results/baseline/3DC.log:gpu_tot_ipc =     966.2682
/workspace/results/baseline/3DC.log:gpu_tot_ipc =     966.8813
/workspace/results/baseline/3DC.log:gpu_tot_ipc =     967.0204
/workspace/results/baseline/3DC.log:gpu_tot_ipc =     967.5676
/workspace/results/baseline/3DC.log:gpu_tot_ipc =     968.8204
/workspace/results/baseline/3DC.log:gpu_tot_ipc =     969.5064
/workspace/results/baseline/3DC.log:gpu_tot_ipc =     970.1174
/workspace/results/baseline/3DC.log:gpu_tot_ipc =     970.3591
/workspace/results/baseline/3DC.log:gpu_tot_ipc =     970.9045
/workspace/results/baseline/3DC.log:gpu_tot_ipc =     972.0638
/workspace/results/baseline/3DC.log:gpu_tot_ipc =     972.1655
/workspace/results/baseline/3DC.log:gpu_tot_ipc =     973.6296
/workspace/results/baseline/3DC.log:gpu_tot_ipc =     972.4736
/workspace/results/baseline/3DC.log:gpu_tot_ipc =     971.1837
/workspace/results/baseline/3DC.log:gpu_tot_ipc =     972.4587
/workspace/results/baseline/3DC.log:gpu_tot_ipc =     973.1227
/workspace/results/baseline/3DC.log:gpu_tot_ipc =     972.3067
/workspace/results/baseline/3DC.log:gpu_tot_ipc =     971.6863
/workspace/results/baseline/3DC.log:gpu_tot_ipc =     969.8453
/workspace/results/baseline/3DC.log:gpu_tot_ipc =     969.0679
/workspace/results/baseline/3DC.log:gpu_tot_ipc =     970.0641
/workspace/results/baseline/3DC.log:gpu_tot_ipc =     969.1218
/workspace/results/baseline/3DC.log:gpu_tot_ipc =     969.1559
/workspace/results/baseline/3DC.log:gpu_tot_ipc =     968.7452
/workspace/results/baseline/3DC.log:gpu_tot_ipc =     967.9947
/workspace/results/baseline/3DC.log:gpu_tot_ipc =     967.0966
/workspace/results/baseline/3DC.log:gpu_tot_ipc =     967.0798
/workspace/results/baseline/3DC.log:gpu_tot_ipc =     968.2817
/workspace/results/baseline/3DC.log:gpu_tot_ipc =     968.7083
/workspace/results/baseline/3DC.log:gpu_tot_ipc =     968.9216
/workspace/results/baseline/3DC.log:gpu_tot_ipc =     969.7349
/workspace/results/baseline/3DC.log:gpu_tot_ipc =     969.9656
/workspace/results/baseline/3DC.log:gpu_tot_ipc =     970.2693
/workspace/results/baseline/3DC.log:gpu_tot_ipc =     970.4053
/workspace/results/baseline/3DC.log:gpu_tot_ipc =     970.1898
/workspace/results/baseline/3DC.log:gpu_tot_ipc =     970.8113
/workspace/results/baseline/3DC.log:gpu_tot_ipc =     971.3733
/workspace/results/baseline/3DC.log:gpu_tot_ipc =     971.0950
/workspace/results/baseline/3DC.log:gpu_tot_ipc =     970.6884
/workspace/results/baseline/3DC.log:gpu_tot_ipc =     970.7341
/workspace/results/baseline/3DC.log:gpu_tot_ipc =     970.3088
/workspace/results/baseline/3DC.log:gpu_tot_ipc =     969.2775
/workspace/results/baseline/3DC.log:gpu_tot_ipc =     969.2057
/workspace/results/baseline/3DC.log:gpu_tot_ipc =     969.2908
/workspace/results/baseline/3DC.log:gpu_tot_ipc =     968.9458
/workspace/results/baseline/3DC.log:gpu_tot_ipc =     969.3065
/workspace/results/baseline/3DC.log:gpu_tot_ipc =     969.4345
/workspace/results/baseline/3DC.log:gpu_tot_ipc =     969.7798
/workspace/results/baseline/3DC.log:gpu_tot_ipc =     968.4664
/workspace/results/baseline/3DC.log:gpu_tot_ipc =     968.2999
/workspace/results/baseline/3DC.log:gpu_tot_ipc =     968.5101
/workspace/results/baseline/3DC.log:gpu_tot_ipc =     967.9042
/workspace/results/baseline/3DC.log:gpu_tot_ipc =     968.0479
/workspace/results/baseline/3DC.log:gpu_tot_ipc =     968.4983
/workspace/results/baseline/3DC.log:gpu_tot_ipc =     968.2661
/workspace/results/baseline/3DC.log:gpu_tot_ipc =     968.7274
/workspace/results/baseline/3DC.log:gpu_tot_ipc =     968.4216
/workspace/results/baseline/3DC.log:gpu_tot_ipc =     968.6265
/workspace/results/baseline/3DC.log:gpu_tot_ipc =     968.6857
/workspace/results/baseline/3DC.log:gpu_tot_ipc =     968.9517
/workspace/results/baseline/3DC.log:gpu_tot_ipc =     969.1693
/workspace/results/baseline/3DC.log:gpu_tot_ipc =     969.3274
/workspace/results/baseline/3DC.log:gpu_tot_ipc =     969.4428
/workspace/results/baseline/3DC.log:gpu_tot_ipc =     969.5363
/workspace/results/baseline/3DC.log:gpu_tot_ipc =     968.6487
/workspace/results/baseline/3DC.log:gpu_tot_ipc =     967.6960
/workspace/results/baseline/3DC.log:gpu_tot_ipc =     967.7245
/workspace/results/baseline/3DC.log:gpu_tot_ipc =     968.1548
/workspace/results/baseline/3DC.log:gpu_tot_ipc =     967.1522
/workspace/results/baseline/3DC.log:gpu_tot_ipc =     967.4971
/workspace/results/baseline/3DC.log:gpu_tot_ipc =     967.6639
/workspace/results/baseline/3DC.log:gpu_tot_ipc =     967.9951
/workspace/results/baseline/3DC.log:gpu_tot_ipc =     967.7449
/workspace/results/baseline/3DC.log:gpu_tot_ipc =     967.3574
/workspace/results/baseline/3DC.log:gpu_tot_ipc =     967.8660
/workspace/results/baseline/3DC.log:gpu_tot_ipc =     967.8089
/workspace/results/baseline/3DC.log:gpu_tot_ipc =     967.4722
/workspace/results/baseline/3DC.log:gpu_tot_ipc =     967.2745
/workspace/results/baseline/3DC.log:gpu_tot_ipc =     967.3414
/workspace/results/baseline/3DC.log:gpu_tot_ipc =     966.8409
/workspace/results/baseline/3DC.log:gpu_tot_ipc =     966.7078
/workspace/results/baseline/3DC.log:gpu_tot_ipc =     967.2423
/workspace/results/baseline/3DC.log:gpu_tot_ipc =     967.0235
/workspace/results/baseline/3DC.log:gpu_tot_ipc =     966.7051
/workspace/results/baseline/3DC.log:gpu_tot_ipc =     966.8740
/workspace/results/baseline/3DC.log:gpu_tot_ipc =     966.9558
/workspace/results/baseline/3DC.log:gpu_tot_ipc =     966.3535
/workspace/results/baseline/3DC.log:gpu_tot_ipc =     966.8959
/workspace/results/baseline/3DC.log:gpu_tot_ipc =     967.1014
/workspace/results/baseline/3DC.log:gpu_tot_ipc =     966.4619
/workspace/results/baseline/3DC.log:gpu_tot_ipc =     966.2532
/workspace/results/baseline/3DC.log:gpu_tot_ipc =     966.3361
/workspace/results/baseline/3DC.log:gpu_tot_ipc =     965.2963
/workspace/results/baseline/3DC.log:gpu_tot_ipc =     965.6007
/workspace/results/baseline/3DC.log:gpu_tot_ipc =     965.8334
/workspace/results/baseline/3DC.log:gpu_tot_ipc =     964.9922
/workspace/results/baseline/3DC.log:gpu_tot_ipc =     965.1153
/workspace/results/baseline/3DC.log:gpu_tot_ipc =     965.2171
/workspace/results/baseline/3DC.log:gpu_tot_ipc =     964.8425
/workspace/results/baseline/3DC.log:gpu_tot_ipc =     965.3342
/workspace/results/baseline/3DC.log:gpu_tot_ipc =     965.5943
/workspace/results/baseline/3DC.log:gpu_tot_ipc =     965.8969
/workspace/results/baseline/3DC.log:gpu_tot_ipc =     966.4249
/workspace/results/baseline/3DC.log:gpu_tot_ipc =     966.6782
/workspace/results/baseline/3DC.log:gpu_tot_ipc =     966.6895
/workspace/results/baseline/3DC.log:gpu_tot_ipc =     966.5623
/workspace/results/baseline/3DC.log:gpu_tot_ipc =     966.7048
/workspace/results/baseline/3DC.log:gpu_tot_ipc =     967.0836
/workspace/results/baseline/3DC.log:gpu_tot_ipc =     966.5387
/workspace/results/baseline/3DC.log:gpu_tot_ipc =     966.2513
/workspace/results/baseline/3DC.log:gpu_tot_ipc =     965.5911
/workspace/results/baseline/3DC.log:gpu_tot_ipc =     966.1271
/workspace/results/baseline/3DC.log:gpu_tot_ipc =     965.8552
/workspace/results/baseline/3DC.log:gpu_tot_ipc =     965.6077
/workspace/results/baseline/3DC.log:gpu_tot_ipc =     965.0226
/workspace/results/baseline/3DC.log:gpu_tot_ipc =     964.9221
/workspace/results/baseline/3DC.log:gpu_tot_ipc =     965.2377
/workspace/results/baseline/3DC.log:gpu_tot_ipc =     964.9801
/workspace/results/baseline/3DC.log:gpu_tot_ipc =     964.3991
/workspace/results/baseline/3DC.log:gpu_tot_ipc =     964.4875
/workspace/results/baseline/3DC.log:gpu_tot_ipc =     964.6181
/workspace/results/baseline/3DC.log:gpu_tot_ipc =     964.7188
/workspace/results/baseline/3DC.log:gpu_tot_ipc =     965.1367
/workspace/results/baseline/3DC.log:gpu_tot_ipc =     965.2064
/workspace/results/baseline/3DC.log:gpu_tot_ipc =     965.2359
/workspace/results/baseline/3DC.log:gpu_tot_ipc =     965.5343
/workspace/results/baseline/3DC.log:gpu_tot_ipc =     965.6979
/workspace/results/baseline/3DC.log:gpu_tot_ipc =     965.9154
/workspace/results/baseline/3DC.log:gpu_tot_ipc =     965.9795
/workspace/results/baseline/3DC.log:gpu_tot_ipc =     966.2181
/workspace/results/baseline/3DC.log:gpu_tot_ipc =     966.4903
/workspace/results/baseline/3DC.log:gpu_tot_ipc =     966.7117
/workspace/results/baseline/3DC.log:gpu_tot_ipc =     966.0227
/workspace/results/baseline/3DC.log:gpu_tot_ipc =     965.4780
/workspace/results/baseline/3DC.log:gpu_tot_ipc =     965.7518
/workspace/results/baseline/3DC.log:gpu_tot_ipc =     965.7106
/workspace/results/baseline/3DC.log:gpu_tot_ipc =     965.2753
/workspace/results/baseline/3DC.log:gpu_tot_ipc =     965.2510
/workspace/results/baseline/3DC.log:gpu_tot_ipc =     965.2951
/workspace/results/baseline/3DC.log:gpu_tot_ipc =     965.5073
/workspace/results/baseline/3DC.log:gpu_tot_ipc =     965.8677
/workspace/results/baseline/3DC.log:gpu_tot_ipc =     966.0258
/workspace/results/baseline/3DC.log:gpu_tot_ipc =     966.2552
/workspace/results/baseline/3DC.log:gpu_tot_ipc =     966.5418
/workspace/results/baseline/3DC.log:gpu_tot_ipc =     966.3910
/workspace/results/baseline/3DC.log:gpu_tot_ipc =     966.3447
/workspace/results/baseline/3DC.log:gpu_tot_ipc =     966.6094
/workspace/results/baseline/3DC.log:gpu_tot_ipc =     966.9894
/workspace/results/baseline/3DC.log:gpu_tot_ipc =     966.2328
/workspace/results/baseline/3DC.log:gpu_tot_ipc =     966.4108
/workspace/results/baseline/3DC.log:gpu_tot_ipc =     966.0747
/workspace/results/baseline/3DC.log:gpu_tot_ipc =     966.0850
/workspace/results/baseline/3DC.log:gpu_tot_ipc =     966.4140
/workspace/results/baseline/3DC.log:gpu_tot_ipc =     966.3021
/workspace/results/baseline/3DC.log:gpu_tot_ipc =     966.1314
/workspace/results/baseline/3DC.log:gpu_tot_ipc =     965.9153
/workspace/results/baseline/3DC.log:gpu_tot_ipc =     966.2477
/workspace/results/baseline/3DC.log:gpu_tot_ipc =     966.3193
/workspace/results/baseline/3DC.log:gpu_tot_ipc =     966.7551
/workspace/results/baseline/3DC.log:gpu_tot_ipc =     966.9305
/workspace/results/baseline/3DC.log:gpu_tot_ipc =     966.8068
/workspace/results/baseline/3DC.log:gpu_tot_ipc =     966.9637
/workspace/results/baseline/3DC.log:gpu_tot_ipc =     966.7157
/workspace/results/baseline/3DC.log:gpu_tot_ipc =     966.5554
/workspace/results/baseline/3DC.log:gpu_tot_ipc =     966.5591
/workspace/results/baseline/3DC.log:gpu_tot_ipc =     966.4683
/workspace/results/baseline/3DC.log:gpu_tot_ipc =     966.2166
/workspace/results/baseline/3DC.log:gpu_tot_ipc =     966.0897
/workspace/results/baseline/3DC.log:gpu_tot_ipc =     965.7849
/workspace/results/baseline/3DC.log:gpu_tot_ipc =     965.7055
/workspace/results/baseline/3DC.log:gpu_tot_ipc =     965.9806
/workspace/results/baseline/3DC.log:gpu_tot_ipc =     966.3191
/workspace/results/baseline/3DC.log:gpu_tot_ipc =     966.4229
/workspace/results/baseline/3DC.log:gpu_tot_ipc =     966.7042
/workspace/results/baseline/3DC.log:gpu_tot_ipc =     966.6486
/workspace/results/baseline/3DC.log:gpu_tot_ipc =     966.5090
/workspace/results/baseline/3DC.log:gpu_tot_ipc =     966.6602
/workspace/results/baseline/3DC.log:gpu_tot_ipc =     966.8393
/workspace/results/baseline/3DC.log:gpu_tot_ipc =     966.8846
/workspace/results/baseline/3DC.log:gpu_tot_ipc =     966.8015
/workspace/results/baseline/3DC.log:gpu_tot_ipc =     966.7930
/workspace/results/baseline/3DC.log:gpu_tot_ipc =     966.6418
/workspace/results/baseline/3DC.log:gpu_tot_ipc =     966.8709
/workspace/results/baseline/3DC.log:gpu_tot_ipc =     966.8369
/workspace/results/baseline/3DC.log:gpu_tot_ipc =     966.6465
/workspace/results/baseline/3DC.log:gpu_tot_ipc =     966.5847
/workspace/results/baseline/3DC.log:gpu_tot_ipc =     966.6430
/workspace/results/baseline/3DC.log:gpu_tot_ipc =     966.7050
/workspace/results/baseline/3DC.log:gpu_tot_ipc =     967.0247
/workspace/results/baseline/3DC.log:gpu_tot_ipc =     967.1914
/workspace/results/baseline/3DC.log:gpu_tot_ipc =     967.3003
/workspace/results/baseline/3DC.log:gpu_tot_ipc =     967.3246
/workspace/results/baseline/3DC.log:gpu_tot_ipc =     967.2585
/workspace/results/baseline/3DC.log:gpu_tot_ipc =     967.2213
/workspace/results/baseline/3DC.log:gpu_tot_ipc =     967.0235
/workspace/results/baseline/3DC.log:gpu_tot_ipc =     967.2338
/workspace/results/baseline/3DC.log:gpu_tot_ipc =     967.1045
/workspace/results/baseline/3DC.log:gpu_tot_ipc =     966.9744
/workspace/results/baseline/3DC.log:gpu_tot_ipc =     966.8710
/workspace/results/baseline/3DC.log:gpu_tot_ipc =     966.8914
/workspace/results/baseline/3DC.log:gpu_tot_ipc =     967.1291
/workspace/results/baseline/3DC.log:gpu_tot_ipc =     966.8900
/workspace/results/baseline/3DC.log:gpu_tot_ipc =     966.7103
/workspace/results/baseline/3DC.log:gpu_tot_ipc =     966.6702
/workspace/results/baseline/3DC.log:gpu_tot_ipc =     966.8623
/workspace/results/baseline/3DC.log:gpu_tot_ipc =     966.9216
/workspace/results/baseline/3DC.log:gpu_tot_ipc =     966.9879
/workspace/results/baseline/3DC.log:gpu_tot_ipc =     967.1554
/workspace/results/baseline/3DC.log:gpu_tot_ipc =     967.2600
/workspace/results/baseline/3DC.log:gpu_tot_ipc =     967.0943
/workspace/results/baseline/3DC.log:gpu_tot_ipc =     966.8334
/workspace/results/baseline/3DC.log:gpu_tot_ipc =     966.8931
/workspace/results/baseline/3DC.log:gpu_tot_ipc =     966.8770
/workspace/results/baseline/3DC.log:gpu_tot_ipc =     966.7741
/workspace/results/baseline/3DC.log:gpu_tot_ipc =     966.8776
/workspace/results/baseline/3DC.log:gpu_tot_ipc =     966.9711
/workspace/results/baseline/3DC.log:gpu_tot_ipc =     967.0227
/workspace/results/baseline/3DC.log:gpu_tot_ipc =     966.9846
/workspace/results/baseline/3DC.log:gpu_tot_ipc =     966.9921
/workspace/results/baseline/3DC.log:gpu_tot_ipc =     967.1678
/workspace/results/baseline/3DC.log:gpu_tot_ipc =     967.0413
/workspace/results/baseline/3DC.log:gpu_tot_ipc =     966.8889
/workspace/results/baseline/3DC.log:gpu_tot_ipc =     967.0467
/workspace/results/baseline/3DC.log:gpu_tot_ipc =     966.8216
/workspace/results/baseline/3DC.log:gpu_tot_ipc =     966.8748
/workspace/results/baseline/BFS.log:gpu_tot_ipc =     325.0429
/workspace/results/baseline/BFS.log:gpu_tot_ipc =     286.3330
/workspace/results/baseline/BFS.log:gpu_tot_ipc =     261.3837
/workspace/results/baseline/BFS.log:gpu_tot_ipc =     241.0764
/workspace/results/baseline/BFS.log:gpu_tot_ipc =     194.5054
/workspace/results/baseline/BFS.log:gpu_tot_ipc =     145.9544
/workspace/results/baseline/BFS.log:gpu_tot_ipc =     139.7482
/workspace/results/baseline/BFS.log:gpu_tot_ipc =     151.2887
/workspace/results/baseline/BFS.log:gpu_tot_ipc =     158.6883
/workspace/results/baseline/BFS.log:gpu_tot_ipc =     167.8177
/workspace/results/baseline/BP.log:gpu_tot_ipc =    3783.6045
/workspace/results/baseline/BP.log:gpu_tot_ipc =    2133.5015
/workspace/results/baseline/GA.log:gpu_tot_ipc =      11.4363
/workspace/results/baseline/GA.log:gpu_tot_ipc =     234.6061
/workspace/results/baseline/GA.log:gpu_tot_ipc =     187.3339
/workspace/results/baseline/GA.log:gpu_tot_ipc =     219.5660
/workspace/results/baseline/GA.log:gpu_tot_ipc =     196.2495
/workspace/results/baseline/GA.log:gpu_tot_ipc =     213.0331
/workspace/results/baseline/GA.log:gpu_tot_ipc =     197.8342
/workspace/results/baseline/GA.log:gpu_tot_ipc =     210.7957
/workspace/results/baseline/GA.log:gpu_tot_ipc =     199.4292
/workspace/results/baseline/GA.log:gpu_tot_ipc =     215.8254
/workspace/results/baseline/GA.log:gpu_tot_ipc =     206.0770
/workspace/results/baseline/GA.log:gpu_tot_ipc =     214.2806
/workspace/results/baseline/GA.log:gpu_tot_ipc =     206.2471
/workspace/results/baseline/GA.log:gpu_tot_ipc =     213.4149
/workspace/results/baseline/GA.log:gpu_tot_ipc =     206.4892
/workspace/results/baseline/GA.log:gpu_tot_ipc =     212.6088
/workspace/results/baseline/GA.log:gpu_tot_ipc =     206.5663
/workspace/results/baseline/GA.log:gpu_tot_ipc =     214.6825
/workspace/results/baseline/GA.log:gpu_tot_ipc =     209.1402
/workspace/results/baseline/GA.log:gpu_tot_ipc =     213.1751
/workspace/results/baseline/GA.log:gpu_tot_ipc =     208.2485
/workspace/results/baseline/GA.log:gpu_tot_ipc =     212.0634
/workspace/results/baseline/GA.log:gpu_tot_ipc =     207.6143
/workspace/results/baseline/GA.log:gpu_tot_ipc =     210.9868
/workspace/results/baseline/GA.log:gpu_tot_ipc =     206.9089
/workspace/results/baseline/GA.log:gpu_tot_ipc =     212.2149
/workspace/results/baseline/GA.log:gpu_tot_ipc =     208.4183
/workspace/results/baseline/GA.log:gpu_tot_ipc =     211.6013
/workspace/results/baseline/GA.log:gpu_tot_ipc =     208.0857
/workspace/results/baseline/GA.log:gpu_tot_ipc =     210.7029
/workspace/results/baseline/GA.log:gpu_tot_ipc =     207.4054
/workspace/results/baseline/GA.log:gpu_tot_ipc =     210.0377
/workspace/results/baseline/GA.log:gpu_tot_ipc =     206.9657
/workspace/results/baseline/GA.log:gpu_tot_ipc =     211.0338
/workspace/results/baseline/GA.log:gpu_tot_ipc =     208.0909
/workspace/results/baseline/GA.log:gpu_tot_ipc =     210.5288
/workspace/results/baseline/GA.log:gpu_tot_ipc =     207.7781
/workspace/results/baseline/GA.log:gpu_tot_ipc =     210.0869
/workspace/results/baseline/GA.log:gpu_tot_ipc =     207.4574
/workspace/results/baseline/GA.log:gpu_tot_ipc =     209.6715
/workspace/results/baseline/GA.log:gpu_tot_ipc =     207.1742
/workspace/results/baseline/GA.log:gpu_tot_ipc =     210.1711
/workspace/results/baseline/GA.log:gpu_tot_ipc =     207.7947
/workspace/results/baseline/GA.log:gpu_tot_ipc =     209.5007
/workspace/results/baseline/GA.log:gpu_tot_ipc =     207.2359
/workspace/results/baseline/GA.log:gpu_tot_ipc =     208.9320
/workspace/results/baseline/GA.log:gpu_tot_ipc =     206.7522
/workspace/results/baseline/GA.log:gpu_tot_ipc =     208.3600
/workspace/results/baseline/GA.log:gpu_tot_ipc =     206.2753
/workspace/results/baseline/GA.log:gpu_tot_ipc =     208.6786
/workspace/results/baseline/GA.log:gpu_tot_ipc =     206.6721
/workspace/results/baseline/GA.log:gpu_tot_ipc =     208.2569
/workspace/results/baseline/GA.log:gpu_tot_ipc =     206.3209
/workspace/results/baseline/GA.log:gpu_tot_ipc =     207.9332
/workspace/results/baseline/GA.log:gpu_tot_ipc =     206.0836
/workspace/results/baseline/GA.log:gpu_tot_ipc =     207.6178
/workspace/results/baseline/GA.log:gpu_tot_ipc =     205.8264
/workspace/results/baseline/GA.log:gpu_tot_ipc =     207.9682
/workspace/results/baseline/GA.log:gpu_tot_ipc =     206.2291
/workspace/results/baseline/GA.log:gpu_tot_ipc =     207.7034
/workspace/results/baseline/GA.log:gpu_tot_ipc =     206.0187
/workspace/results/baseline/GA.log:gpu_tot_ipc =     207.4617
/workspace/results/baseline/GA.log:gpu_tot_ipc =     205.8409
/workspace/results/baseline/GA.log:gpu_tot_ipc =     207.2237
/workspace/results/baseline/GA.log:gpu_tot_ipc =     205.6455
/workspace/results/baseline/GA.log:gpu_tot_ipc =     207.5347
/workspace/results/baseline/GA.log:gpu_tot_ipc =     205.9903
/workspace/results/baseline/GA.log:gpu_tot_ipc =     207.3165
/workspace/results/baseline/GA.log:gpu_tot_ipc =     205.8096
/workspace/results/baseline/GA.log:gpu_tot_ipc =     207.0237
/workspace/results/baseline/GA.log:gpu_tot_ipc =     205.5674
/workspace/results/baseline/GA.log:gpu_tot_ipc =     206.8018
/workspace/results/baseline/GA.log:gpu_tot_ipc =     205.3845
/workspace/results/baseline/GA.log:gpu_tot_ipc =     206.8814
/workspace/results/baseline/GA.log:gpu_tot_ipc =     205.5045
/workspace/results/baseline/GA.log:gpu_tot_ipc =     206.6408
/workspace/results/baseline/GA.log:gpu_tot_ipc =     205.2841
/workspace/results/baseline/GA.log:gpu_tot_ipc =     206.3459
/workspace/results/baseline/GA.log:gpu_tot_ipc =     205.0381
/workspace/results/baseline/GA.log:gpu_tot_ipc =     205.9590
/workspace/results/baseline/GA.log:gpu_tot_ipc =     204.6777
/workspace/results/baseline/GA.log:gpu_tot_ipc =     205.9968
/workspace/results/baseline/GA.log:gpu_tot_ipc =     204.7370
/workspace/results/baseline/GA.log:gpu_tot_ipc =     205.7210
/workspace/results/baseline/GA.log:gpu_tot_ipc =     204.4958
/workspace/results/baseline/GA.log:gpu_tot_ipc =     205.4456
/workspace/results/baseline/GA.log:gpu_tot_ipc =     204.2484
/workspace/results/baseline/GA.log:gpu_tot_ipc =     205.1192
/workspace/results/baseline/GA.log:gpu_tot_ipc =     203.9444
/workspace/results/baseline/GA.log:gpu_tot_ipc =     204.9795
/workspace/results/baseline/GA.log:gpu_tot_ipc =     203.8353
/workspace/results/baseline/GA.log:gpu_tot_ipc =     204.5835
/workspace/results/baseline/GA.log:gpu_tot_ipc =     203.4635
/workspace/results/baseline/GA.log:gpu_tot_ipc =     204.1654
/workspace/results/baseline/GA.log:gpu_tot_ipc =     203.0659
/workspace/results/baseline/GA.log:gpu_tot_ipc =     203.7835
/workspace/results/baseline/GA.log:gpu_tot_ipc =     202.7077
/workspace/results/baseline/GA.log:gpu_tot_ipc =     203.6292
/workspace/results/baseline/GA.log:gpu_tot_ipc =     202.5723
/workspace/results/baseline/GA.log:gpu_tot_ipc =     203.2646
/workspace/results/baseline/GA.log:gpu_tot_ipc =     202.2309
/workspace/results/baseline/GA.log:gpu_tot_ipc =     202.8533
/workspace/results/baseline/GA.log:gpu_tot_ipc =     201.8452
/workspace/results/baseline/GA.log:gpu_tot_ipc =     202.3967
/workspace/results/baseline/GA.log:gpu_tot_ipc =     201.4110
/workspace/results/baseline/GA.log:gpu_tot_ipc =     202.1672
/workspace/results/baseline/GA.log:gpu_tot_ipc =     201.1981
/workspace/results/baseline/GA.log:gpu_tot_ipc =     201.7582
/workspace/results/baseline/GA.log:gpu_tot_ipc =     200.8094
/workspace/results/baseline/GA.log:gpu_tot_ipc =     201.2559
/workspace/results/baseline/GA.log:gpu_tot_ipc =     200.3304
/workspace/results/baseline/GA.log:gpu_tot_ipc =     200.7894
/workspace/results/baseline/GA.log:gpu_tot_ipc =     199.8728
/workspace/results/baseline/GA.log:gpu_tot_ipc =     200.5288
/workspace/results/baseline/GA.log:gpu_tot_ipc =     199.6331
/workspace/results/baseline/GA.log:gpu_tot_ipc =     200.0836
/workspace/results/baseline/GA.log:gpu_tot_ipc =     199.1999
/workspace/results/baseline/GA.log:gpu_tot_ipc =     199.6185
/workspace/results/baseline/GA.log:gpu_tot_ipc =     198.7550
/workspace/results/baseline/GA.log:gpu_tot_ipc =     199.1236
/workspace/results/baseline/GA.log:gpu_tot_ipc =     198.2763
/workspace/results/baseline/GA.log:gpu_tot_ipc =     198.7781
/workspace/results/baseline/GA.log:gpu_tot_ipc =     197.9453
/workspace/results/baseline/GA.log:gpu_tot_ipc =     198.3028
/workspace/results/baseline/GA.log:gpu_tot_ipc =     197.4897
/workspace/results/baseline/GA.log:gpu_tot_ipc =     197.8760
/workspace/results/baseline/GA.log:gpu_tot_ipc =     197.0735
/workspace/results/baseline/GA.log:gpu_tot_ipc =     197.5474
/workspace/results/baseline/GA.log:gpu_tot_ipc =     196.7579
/workspace/results/baseline/GA.log:gpu_tot_ipc =     197.2742
/workspace/results/baseline/GA.log:gpu_tot_ipc =     196.4924
/workspace/results/baseline/GA.log:gpu_tot_ipc =     196.8518
/workspace/results/baseline/GA.log:gpu_tot_ipc =     196.0874
/workspace/results/baseline/GA.log:gpu_tot_ipc =     196.4224
/workspace/results/baseline/GA.log:gpu_tot_ipc =     195.6707
/workspace/results/baseline/GA.log:gpu_tot_ipc =     196.0267
/workspace/results/baseline/GA.log:gpu_tot_ipc =     195.2870
/workspace/results/baseline/GA.log:gpu_tot_ipc =     195.7308
/workspace/results/baseline/GA.log:gpu_tot_ipc =     195.0020
/workspace/results/baseline/GA.log:gpu_tot_ipc =     195.3207
/workspace/results/baseline/GA.log:gpu_tot_ipc =     194.6076
/workspace/results/baseline/GA.log:gpu_tot_ipc =     194.9013
/workspace/results/baseline/GA.log:gpu_tot_ipc =     194.1952
/workspace/results/baseline/GA.log:gpu_tot_ipc =     194.4689
/workspace/results/baseline/GA.log:gpu_tot_ipc =     193.7698
/workspace/results/baseline/GA.log:gpu_tot_ipc =     194.1468
/workspace/results/baseline/GA.log:gpu_tot_ipc =     193.4577
/workspace/results/baseline/GA.log:gpu_tot_ipc =     193.7570
/workspace/results/baseline/GA.log:gpu_tot_ipc =     193.0861
/workspace/results/baseline/GA.log:gpu_tot_ipc =     193.3358
/workspace/results/baseline/GA.log:gpu_tot_ipc =     192.6710
/workspace/results/baseline/GA.log:gpu_tot_ipc =     192.9381
/workspace/results/baseline/GA.log:gpu_tot_ipc =     192.2831
/workspace/results/baseline/GA.log:gpu_tot_ipc =     192.6005
/workspace/results/baseline/GA.log:gpu_tot_ipc =     191.9546
/workspace/results/baseline/GA.log:gpu_tot_ipc =     192.1770
/workspace/results/baseline/GA.log:gpu_tot_ipc =     191.5368
/workspace/results/baseline/GA.log:gpu_tot_ipc =     191.7543
/workspace/results/baseline/GA.log:gpu_tot_ipc =     191.1270
/workspace/results/baseline/GA.log:gpu_tot_ipc =     191.3536
/workspace/results/baseline/GA.log:gpu_tot_ipc =     190.7389
/workspace/results/baseline/GA.log:gpu_tot_ipc =     191.0154
/workspace/results/baseline/GA.log:gpu_tot_ipc =     190.4016
/workspace/results/baseline/GA.log:gpu_tot_ipc =     190.6223
/workspace/results/baseline/GA.log:gpu_tot_ipc =     190.0170
/workspace/results/baseline/GA.log:gpu_tot_ipc =     190.2121
/workspace/results/baseline/GA.log:gpu_tot_ipc =     189.6151
/workspace/results/baseline/GA.log:gpu_tot_ipc =     189.8355
/workspace/results/baseline/GA.log:gpu_tot_ipc =     189.2517
/workspace/results/baseline/GA.log:gpu_tot_ipc =     189.4950
/workspace/results/baseline/GA.log:gpu_tot_ipc =     188.9153
/workspace/results/baseline/GA.log:gpu_tot_ipc =     189.0943
/workspace/results/baseline/GA.log:gpu_tot_ipc =     188.5206
/workspace/results/baseline/GA.log:gpu_tot_ipc =     188.6925
/workspace/results/baseline/GA.log:gpu_tot_ipc =     188.1315
/workspace/results/baseline/GA.log:gpu_tot_ipc =     188.2973
/workspace/results/baseline/GA.log:gpu_tot_ipc =     187.7403
/workspace/results/baseline/GA.log:gpu_tot_ipc =     187.9525
/workspace/results/baseline/GA.log:gpu_tot_ipc =     187.4008
/workspace/results/baseline/GA.log:gpu_tot_ipc =     187.5682
/workspace/results/baseline/GA.log:gpu_tot_ipc =     187.0252
/workspace/results/baseline/GA.log:gpu_tot_ipc =     187.1855
/workspace/results/baseline/GA.log:gpu_tot_ipc =     186.6525
/workspace/results/baseline/GA.log:gpu_tot_ipc =     186.8125
/workspace/results/baseline/GA.log:gpu_tot_ipc =     186.2846
/workspace/results/baseline/GA.log:gpu_tot_ipc =     186.4879
/workspace/results/baseline/GA.log:gpu_tot_ipc =     185.9679
/workspace/results/baseline/GA.log:gpu_tot_ipc =     186.1311
/workspace/results/baseline/GA.log:gpu_tot_ipc =     185.6127
/workspace/results/baseline/GA.log:gpu_tot_ipc =     185.7659
/workspace/results/baseline/GA.log:gpu_tot_ipc =     185.2545
/workspace/results/baseline/GA.log:gpu_tot_ipc =     185.4094
/workspace/results/baseline/GA.log:gpu_tot_ipc =     184.9095
/workspace/results/baseline/GA.log:gpu_tot_ipc =     185.0798
/workspace/results/baseline/GA.log:gpu_tot_ipc =     184.5835
/workspace/results/baseline/GA.log:gpu_tot_ipc =     184.7239
/workspace/results/baseline/GA.log:gpu_tot_ipc =     184.2371
/workspace/results/baseline/GA.log:gpu_tot_ipc =     184.3753
/workspace/results/baseline/GA.log:gpu_tot_ipc =     183.8949
/workspace/results/baseline/GA.log:gpu_tot_ipc =     184.0310
/workspace/results/baseline/GA.log:gpu_tot_ipc =     183.5539
/workspace/results/baseline/GA.log:gpu_tot_ipc =     183.7041
/workspace/results/baseline/GA.log:gpu_tot_ipc =     183.2310
/workspace/results/baseline/GA.log:gpu_tot_ipc =     183.3561
/workspace/results/baseline/GA.log:gpu_tot_ipc =     182.8920
/workspace/results/baseline/GA.log:gpu_tot_ipc =     183.0148
/workspace/results/baseline/GA.log:gpu_tot_ipc =     182.5538
/workspace/results/baseline/GA.log:gpu_tot_ipc =     182.6760
/workspace/results/baseline/GA.log:gpu_tot_ipc =     182.2251
/workspace/results/baseline/GA.log:gpu_tot_ipc =     182.3608
/workspace/results/baseline/GA.log:gpu_tot_ipc =     181.9127
/workspace/results/baseline/GA.log:gpu_tot_ipc =     182.0333
/workspace/results/baseline/GA.log:gpu_tot_ipc =     181.5893
/workspace/results/baseline/GA.log:gpu_tot_ipc =     181.7056
/workspace/results/baseline/GA.log:gpu_tot_ipc =     181.2685
/workspace/results/baseline/GA.log:gpu_tot_ipc =     181.3860
/workspace/results/baseline/GA.log:gpu_tot_ipc =     180.9557
/workspace/results/baseline/GA.log:gpu_tot_ipc =     181.0767
/workspace/results/baseline/GA.log:gpu_tot_ipc =     180.6528
/workspace/results/baseline/GA.log:gpu_tot_ipc =     180.7618
/workspace/results/baseline/GA.log:gpu_tot_ipc =     180.3405
/workspace/results/baseline/GA.log:gpu_tot_ipc =     180.4459
/workspace/results/baseline/GA.log:gpu_tot_ipc =     180.0310
/workspace/results/baseline/GA.log:gpu_tot_ipc =     180.1349
/workspace/results/baseline/GA.log:gpu_tot_ipc =     179.7237
/workspace/results/baseline/GA.log:gpu_tot_ipc =     179.8303
/workspace/results/baseline/GA.log:gpu_tot_ipc =     179.4226
/workspace/results/baseline/GA.log:gpu_tot_ipc =     179.5222
/workspace/results/baseline/GA.log:gpu_tot_ipc =     179.1194
/workspace/results/baseline/GA.log:gpu_tot_ipc =     179.2148
/workspace/results/baseline/GA.log:gpu_tot_ipc =     178.8180
/workspace/results/baseline/GA.log:gpu_tot_ipc =     178.9119
/workspace/results/baseline/GA.log:gpu_tot_ipc =     178.5198
/workspace/results/baseline/GA.log:gpu_tot_ipc =     178.6100
/workspace/results/baseline/GA.log:gpu_tot_ipc =     178.2237
/workspace/results/baseline/GA.log:gpu_tot_ipc =     178.3052
/workspace/results/baseline/GA.log:gpu_tot_ipc =     177.9234
/workspace/results/baseline/GA.log:gpu_tot_ipc =     178.0016
/workspace/results/baseline/GA.log:gpu_tot_ipc =     177.6255
/workspace/results/baseline/GA.log:gpu_tot_ipc =     177.7023
/workspace/results/baseline/GA.log:gpu_tot_ipc =     177.3281
/workspace/results/baseline/GA.log:gpu_tot_ipc =     177.5092
/workspace/results/baseline/GA.log:gpu_tot_ipc =     177.1388
/workspace/results/baseline/GA.log:gpu_tot_ipc =     177.3152
/workspace/results/baseline/GA.log:gpu_tot_ipc =     176.9487
/workspace/results/baseline/GA.log:gpu_tot_ipc =     177.1207
/workspace/results/baseline/GA.log:gpu_tot_ipc =     176.7573
/workspace/results/baseline/GA.log:gpu_tot_ipc =     176.9262
/workspace/results/baseline/GA.log:gpu_tot_ipc =     176.5666
/workspace/results/baseline/GA.log:gpu_tot_ipc =     176.7356
/workspace/results/baseline/GA.log:gpu_tot_ipc =     176.3837
/workspace/results/baseline/GA.log:gpu_tot_ipc =     176.5482
/workspace/results/baseline/GA.log:gpu_tot_ipc =     176.1999
/workspace/results/baseline/GA.log:gpu_tot_ipc =     176.3648

=== L1D MISS RATE SUMMARY ===
/workspace/results/baseline/3DC.log:	L1D_total_cache_miss_rate = 0.4175
/workspace/results/baseline/3DC.log:	L1D_total_cache_miss_rate = 0.4175
/workspace/results/baseline/3DC.log:	L1D_total_cache_miss_rate = 0.4175
/workspace/results/baseline/3DC.log:	L1D_total_cache_miss_rate = 0.4175
/workspace/results/baseline/3DC.log:	L1D_total_cache_miss_rate = 0.4175
/workspace/results/baseline/3DC.log:	L1D_total_cache_miss_rate = 0.4175
/workspace/results/baseline/3DC.log:	L1D_total_cache_miss_rate = 0.4175
/workspace/results/baseline/3DC.log:	L1D_total_cache_miss_rate = 0.4175
/workspace/results/baseline/3DC.log:	L1D_total_cache_miss_rate = 0.4175
/workspace/results/baseline/3DC.log:	L1D_total_cache_miss_rate = 0.4175
/workspace/results/baseline/3DC.log:	L1D_total_cache_miss_rate = 0.4175
/workspace/results/baseline/3DC.log:	L1D_total_cache_miss_rate = 0.4175
/workspace/results/baseline/3DC.log:	L1D_total_cache_miss_rate = 0.4175
/workspace/results/baseline/3DC.log:	L1D_total_cache_miss_rate = 0.4175
/workspace/results/baseline/3DC.log:	L1D_total_cache_miss_rate = 0.4175
/workspace/results/baseline/3DC.log:	L1D_total_cache_miss_rate = 0.4175
/workspace/results/baseline/3DC.log:	L1D_total_cache_miss_rate = 0.4175
/workspace/results/baseline/3DC.log:	L1D_total_cache_miss_rate = 0.4175
/workspace/results/baseline/3DC.log:	L1D_total_cache_miss_rate = 0.4175
/workspace/results/baseline/3DC.log:	L1D_total_cache_miss_rate = 0.4175
/workspace/results/baseline/3DC.log:	L1D_total_cache_miss_rate = 0.4175
/workspace/results/baseline/3DC.log:	L1D_total_cache_miss_rate = 0.4175
/workspace/results/baseline/3DC.log:	L1D_total_cache_miss_rate = 0.4175
/workspace/results/baseline/3DC.log:	L1D_total_cache_miss_rate = 0.4175
/workspace/results/baseline/3DC.log:	L1D_total_cache_miss_rate = 0.4175
/workspace/results/baseline/3DC.log:	L1D_total_cache_miss_rate = 0.4175
/workspace/results/baseline/3DC.log:	L1D_total_cache_miss_rate = 0.4175
/workspace/results/baseline/3DC.log:	L1D_total_cache_miss_rate = 0.4175
/workspace/results/baseline/3DC.log:	L1D_total_cache_miss_rate = 0.4175
/workspace/results/baseline/3DC.log:	L1D_total_cache_miss_rate = 0.4175
/workspace/results/baseline/3DC.log:	L1D_total_cache_miss_rate = 0.4175
/workspace/results/baseline/3DC.log:	L1D_total_cache_miss_rate = 0.4175
/workspace/results/baseline/3DC.log:	L1D_total_cache_miss_rate = 0.4175
/workspace/results/baseline/3DC.log:	L1D_total_cache_miss_rate = 0.4175
/workspace/results/baseline/3DC.log:	L1D_total_cache_miss_rate = 0.4175
/workspace/results/baseline/3DC.log:	L1D_total_cache_miss_rate = 0.4175
/workspace/results/baseline/3DC.log:	L1D_total_cache_miss_rate = 0.4175
/workspace/results/baseline/3DC.log:	L1D_total_cache_miss_rate = 0.4175
/workspace/results/baseline/3DC.log:	L1D_total_cache_miss_rate = 0.4175
/workspace/results/baseline/3DC.log:	L1D_total_cache_miss_rate = 0.4175
/workspace/results/baseline/3DC.log:	L1D_total_cache_miss_rate = 0.4175
/workspace/results/baseline/3DC.log:	L1D_total_cache_miss_rate = 0.4175
/workspace/results/baseline/3DC.log:	L1D_total_cache_miss_rate = 0.4175
/workspace/results/baseline/3DC.log:	L1D_total_cache_miss_rate = 0.4175
/workspace/results/baseline/3DC.log:	L1D_total_cache_miss_rate = 0.4175
/workspace/results/baseline/3DC.log:	L1D_total_cache_miss_rate = 0.4175
/workspace/results/baseline/3DC.log:	L1D_total_cache_miss_rate = 0.4175
/workspace/results/baseline/3DC.log:	L1D_total_cache_miss_rate = 0.4175
/workspace/results/baseline/3DC.log:	L1D_total_cache_miss_rate = 0.4175
/workspace/results/baseline/3DC.log:	L1D_total_cache_miss_rate = 0.4175
/workspace/results/baseline/3DC.log:	L1D_total_cache_miss_rate = 0.4175
/workspace/results/baseline/3DC.log:	L1D_total_cache_miss_rate = 0.4175
/workspace/results/baseline/3DC.log:	L1D_total_cache_miss_rate = 0.4175
/workspace/results/baseline/3DC.log:	L1D_total_cache_miss_rate = 0.4175
/workspace/results/baseline/3DC.log:	L1D_total_cache_miss_rate = 0.4175
/workspace/results/baseline/3DC.log:	L1D_total_cache_miss_rate = 0.4175
/workspace/results/baseline/3DC.log:	L1D_total_cache_miss_rate = 0.4175
/workspace/results/baseline/3DC.log:	L1D_total_cache_miss_rate = 0.4175
/workspace/results/baseline/3DC.log:	L1D_total_cache_miss_rate = 0.4175
/workspace/results/baseline/3DC.log:	L1D_total_cache_miss_rate = 0.4175
/workspace/results/baseline/3DC.log:	L1D_total_cache_miss_rate = 0.4175
/workspace/results/baseline/3DC.log:	L1D_total_cache_miss_rate = 0.4175
/workspace/results/baseline/3DC.log:	L1D_total_cache_miss_rate = 0.4175
/workspace/results/baseline/3DC.log:	L1D_total_cache_miss_rate = 0.4175
/workspace/results/baseline/3DC.log:	L1D_total_cache_miss_rate = 0.4175
/workspace/results/baseline/3DC.log:	L1D_total_cache_miss_rate = 0.4175
/workspace/results/baseline/3DC.log:	L1D_total_cache_miss_rate = 0.4175
/workspace/results/baseline/3DC.log:	L1D_total_cache_miss_rate = 0.4175
/workspace/results/baseline/3DC.log:	L1D_total_cache_miss_rate = 0.4175
/workspace/results/baseline/3DC.log:	L1D_total_cache_miss_rate = 0.4175
/workspace/results/baseline/3DC.log:	L1D_total_cache_miss_rate = 0.4175
/workspace/results/baseline/3DC.log:	L1D_total_cache_miss_rate = 0.4175
/workspace/results/baseline/3DC.log:	L1D_total_cache_miss_rate = 0.4175
/workspace/results/baseline/3DC.log:	L1D_total_cache_miss_rate = 0.4175
/workspace/results/baseline/3DC.log:	L1D_total_cache_miss_rate = 0.4175
/workspace/results/baseline/3DC.log:	L1D_total_cache_miss_rate = 0.4175
/workspace/results/baseline/3DC.log:	L1D_total_cache_miss_rate = 0.4175
/workspace/results/baseline/3DC.log:	L1D_total_cache_miss_rate = 0.4175
/workspace/results/baseline/3DC.log:	L1D_total_cache_miss_rate = 0.4175
/workspace/results/baseline/3DC.log:	L1D_total_cache_miss_rate = 0.4175
/workspace/results/baseline/3DC.log:	L1D_total_cache_miss_rate = 0.4175
/workspace/results/baseline/3DC.log:	L1D_total_cache_miss_rate = 0.4175
/workspace/results/baseline/3DC.log:	L1D_total_cache_miss_rate = 0.4175
/workspace/results/baseline/3DC.log:	L1D_total_cache_miss_rate = 0.4175
/workspace/results/baseline/3DC.log:	L1D_total_cache_miss_rate = 0.4175
/workspace/results/baseline/3DC.log:	L1D_total_cache_miss_rate = 0.4175
/workspace/results/baseline/3DC.log:	L1D_total_cache_miss_rate = 0.4175
/workspace/results/baseline/3DC.log:	L1D_total_cache_miss_rate = 0.4175
/workspace/results/baseline/3DC.log:	L1D_total_cache_miss_rate = 0.4175
/workspace/results/baseline/3DC.log:	L1D_total_cache_miss_rate = 0.4175
/workspace/results/baseline/3DC.log:	L1D_total_cache_miss_rate = 0.4175
/workspace/results/baseline/3DC.log:	L1D_total_cache_miss_rate = 0.4175
/workspace/results/baseline/3DC.log:	L1D_total_cache_miss_rate = 0.4175
/workspace/results/baseline/3DC.log:	L1D_total_cache_miss_rate = 0.4175
/workspace/results/baseline/3DC.log:	L1D_total_cache_miss_rate = 0.4175
/workspace/results/baseline/3DC.log:	L1D_total_cache_miss_rate = 0.4175
/workspace/results/baseline/3DC.log:	L1D_total_cache_miss_rate = 0.4175
/workspace/results/baseline/3DC.log:	L1D_total_cache_miss_rate = 0.4175
/workspace/results/baseline/3DC.log:	L1D_total_cache_miss_rate = 0.4175
/workspace/results/baseline/3DC.log:	L1D_total_cache_miss_rate = 0.4175
/workspace/results/baseline/3DC.log:	L1D_total_cache_miss_rate = 0.4175
/workspace/results/baseline/3DC.log:	L1D_total_cache_miss_rate = 0.4175
/workspace/results/baseline/3DC.log:	L1D_total_cache_miss_rate = 0.4175
/workspace/results/baseline/3DC.log:	L1D_total_cache_miss_rate = 0.4175
/workspace/results/baseline/3DC.log:	L1D_total_cache_miss_rate = 0.4175
/workspace/results/baseline/3DC.log:	L1D_total_cache_miss_rate = 0.4175
/workspace/results/baseline/3DC.log:	L1D_total_cache_miss_rate = 0.4175
/workspace/results/baseline/3DC.log:	L1D_total_cache_miss_rate = 0.4175
/workspace/results/baseline/3DC.log:	L1D_total_cache_miss_rate = 0.4175
/workspace/results/baseline/3DC.log:	L1D_total_cache_miss_rate = 0.4175
/workspace/results/baseline/3DC.log:	L1D_total_cache_miss_rate = 0.4175
/workspace/results/baseline/3DC.log:	L1D_total_cache_miss_rate = 0.4175
/workspace/results/baseline/3DC.log:	L1D_total_cache_miss_rate = 0.4175
/workspace/results/baseline/3DC.log:	L1D_total_cache_miss_rate = 0.4175
/workspace/results/baseline/3DC.log:	L1D_total_cache_miss_rate = 0.4175
/workspace/results/baseline/3DC.log:	L1D_total_cache_miss_rate = 0.4175
/workspace/results/baseline/3DC.log:	L1D_total_cache_miss_rate = 0.4175
/workspace/results/baseline/3DC.log:	L1D_total_cache_miss_rate = 0.4175
/workspace/results/baseline/3DC.log:	L1D_total_cache_miss_rate = 0.4175
/workspace/results/baseline/3DC.log:	L1D_total_cache_miss_rate = 0.4175
/workspace/results/baseline/3DC.log:	L1D_total_cache_miss_rate = 0.4175
/workspace/results/baseline/3DC.log:	L1D_total_cache_miss_rate = 0.4175
/workspace/results/baseline/3DC.log:	L1D_total_cache_miss_rate = 0.4175
/workspace/results/baseline/3DC.log:	L1D_total_cache_miss_rate = 0.4175
/workspace/results/baseline/3DC.log:	L1D_total_cache_miss_rate = 0.4175
/workspace/results/baseline/3DC.log:	L1D_total_cache_miss_rate = 0.4175
/workspace/results/baseline/3DC.log:	L1D_total_cache_miss_rate = 0.4175
/workspace/results/baseline/3DC.log:	L1D_total_cache_miss_rate = 0.4175
/workspace/results/baseline/3DC.log:	L1D_total_cache_miss_rate = 0.4175
/workspace/results/baseline/3DC.log:	L1D_total_cache_miss_rate = 0.4175
/workspace/results/baseline/3DC.log:	L1D_total_cache_miss_rate = 0.4175
/workspace/results/baseline/3DC.log:	L1D_total_cache_miss_rate = 0.4175
/workspace/results/baseline/3DC.log:	L1D_total_cache_miss_rate = 0.4175
/workspace/results/baseline/3DC.log:	L1D_total_cache_miss_rate = 0.4175
/workspace/results/baseline/3DC.log:	L1D_total_cache_miss_rate = 0.4175
/workspace/results/baseline/3DC.log:	L1D_total_cache_miss_rate = 0.4175
/workspace/results/baseline/3DC.log:	L1D_total_cache_miss_rate = 0.4175
/workspace/results/baseline/3DC.log:	L1D_total_cache_miss_rate = 0.4175
/workspace/results/baseline/3DC.log:	L1D_total_cache_miss_rate = 0.4175
/workspace/results/baseline/3DC.log:	L1D_total_cache_miss_rate = 0.4175
/workspace/results/baseline/3DC.log:	L1D_total_cache_miss_rate = 0.4175
/workspace/results/baseline/3DC.log:	L1D_total_cache_miss_rate = 0.4175
/workspace/results/baseline/3DC.log:	L1D_total_cache_miss_rate = 0.4175
/workspace/results/baseline/3DC.log:	L1D_total_cache_miss_rate = 0.4175
/workspace/results/baseline/3DC.log:	L1D_total_cache_miss_rate = 0.4175
/workspace/results/baseline/3DC.log:	L1D_total_cache_miss_rate = 0.4175
/workspace/results/baseline/3DC.log:	L1D_total_cache_miss_rate = 0.4175
/workspace/results/baseline/3DC.log:	L1D_total_cache_miss_rate = 0.4175
/workspace/results/baseline/3DC.log:	L1D_total_cache_miss_rate = 0.4175
/workspace/results/baseline/3DC.log:	L1D_total_cache_miss_rate = 0.4175
/workspace/results/baseline/3DC.log:	L1D_total_cache_miss_rate = 0.4175
/workspace/results/baseline/3DC.log:	L1D_total_cache_miss_rate = 0.4175
/workspace/results/baseline/3DC.log:	L1D_total_cache_miss_rate = 0.4175
/workspace/results/baseline/3DC.log:	L1D_total_cache_miss_rate = 0.4175
/workspace/results/baseline/3DC.log:	L1D_total_cache_miss_rate = 0.4175
/workspace/results/baseline/3DC.log:	L1D_total_cache_miss_rate = 0.4175
/workspace/results/baseline/3DC.log:	L1D_total_cache_miss_rate = 0.4175
/workspace/results/baseline/3DC.log:	L1D_total_cache_miss_rate = 0.4175
/workspace/results/baseline/3DC.log:	L1D_total_cache_miss_rate = 0.4175
/workspace/results/baseline/3DC.log:	L1D_total_cache_miss_rate = 0.4175
/workspace/results/baseline/3DC.log:	L1D_total_cache_miss_rate = 0.4175
/workspace/results/baseline/3DC.log:	L1D_total_cache_miss_rate = 0.4175
/workspace/results/baseline/3DC.log:	L1D_total_cache_miss_rate = 0.4175
/workspace/results/baseline/3DC.log:	L1D_total_cache_miss_rate = 0.4175
/workspace/results/baseline/3DC.log:	L1D_total_cache_miss_rate = 0.4175
/workspace/results/baseline/3DC.log:	L1D_total_cache_miss_rate = 0.4175
/workspace/results/baseline/3DC.log:	L1D_total_cache_miss_rate = 0.4175
/workspace/results/baseline/3DC.log:	L1D_total_cache_miss_rate = 0.4175
/workspace/results/baseline/3DC.log:	L1D_total_cache_miss_rate = 0.4175
/workspace/results/baseline/3DC.log:	L1D_total_cache_miss_rate = 0.4175
/workspace/results/baseline/3DC.log:	L1D_total_cache_miss_rate = 0.4175
/workspace/results/baseline/3DC.log:	L1D_total_cache_miss_rate = 0.4175
/workspace/results/baseline/3DC.log:	L1D_total_cache_miss_rate = 0.4175
/workspace/results/baseline/3DC.log:	L1D_total_cache_miss_rate = 0.4175
/workspace/results/baseline/3DC.log:	L1D_total_cache_miss_rate = 0.4175
/workspace/results/baseline/3DC.log:	L1D_total_cache_miss_rate = 0.4175
/workspace/results/baseline/3DC.log:	L1D_total_cache_miss_rate = 0.4175
/workspace/results/baseline/3DC.log:	L1D_total_cache_miss_rate = 0.4175
/workspace/results/baseline/3DC.log:	L1D_total_cache_miss_rate = 0.4175
/workspace/results/baseline/3DC.log:	L1D_total_cache_miss_rate = 0.4175
/workspace/results/baseline/3DC.log:	L1D_total_cache_miss_rate = 0.4175
/workspace/results/baseline/3DC.log:	L1D_total_cache_miss_rate = 0.4175
/workspace/results/baseline/3DC.log:	L1D_total_cache_miss_rate = 0.4175
/workspace/results/baseline/3DC.log:	L1D_total_cache_miss_rate = 0.4175
/workspace/results/baseline/3DC.log:	L1D_total_cache_miss_rate = 0.4175
/workspace/results/baseline/3DC.log:	L1D_total_cache_miss_rate = 0.4175
/workspace/results/baseline/3DC.log:	L1D_total_cache_miss_rate = 0.4175
/workspace/results/baseline/3DC.log:	L1D_total_cache_miss_rate = 0.4175
/workspace/results/baseline/3DC.log:	L1D_total_cache_miss_rate = 0.4175
/workspace/results/baseline/3DC.log:	L1D_total_cache_miss_rate = 0.4175
/workspace/results/baseline/3DC.log:	L1D_total_cache_miss_rate = 0.4175
/workspace/results/baseline/3DC.log:	L1D_total_cache_miss_rate = 0.4175
/workspace/results/baseline/3DC.log:	L1D_total_cache_miss_rate = 0.4175
/workspace/results/baseline/3DC.log:	L1D_total_cache_miss_rate = 0.4175
/workspace/results/baseline/3DC.log:	L1D_total_cache_miss_rate = 0.4175
/workspace/results/baseline/3DC.log:	L1D_total_cache_miss_rate = 0.4175
/workspace/results/baseline/3DC.log:	L1D_total_cache_miss_rate = 0.4175
/workspace/results/baseline/3DC.log:	L1D_total_cache_miss_rate = 0.4175
/workspace/results/baseline/3DC.log:	L1D_total_cache_miss_rate = 0.4175
/workspace/results/baseline/3DC.log:	L1D_total_cache_miss_rate = 0.4175
/workspace/results/baseline/3DC.log:	L1D_total_cache_miss_rate = 0.4175
/workspace/results/baseline/3DC.log:	L1D_total_cache_miss_rate = 0.4175
/workspace/results/baseline/3DC.log:	L1D_total_cache_miss_rate = 0.4175
/workspace/results/baseline/3DC.log:	L1D_total_cache_miss_rate = 0.4175
/workspace/results/baseline/3DC.log:	L1D_total_cache_miss_rate = 0.4175
/workspace/results/baseline/3DC.log:	L1D_total_cache_miss_rate = 0.4175
/workspace/results/baseline/3DC.log:	L1D_total_cache_miss_rate = 0.4175
/workspace/results/baseline/3DC.log:	L1D_total_cache_miss_rate = 0.4175
/workspace/results/baseline/3DC.log:	L1D_total_cache_miss_rate = 0.4175
/workspace/results/baseline/3DC.log:	L1D_total_cache_miss_rate = 0.4175
/workspace/results/baseline/3DC.log:	L1D_total_cache_miss_rate = 0.4175
/workspace/results/baseline/3DC.log:	L1D_total_cache_miss_rate = 0.4175
/workspace/results/baseline/3DC.log:	L1D_total_cache_miss_rate = 0.4175
/workspace/results/baseline/3DC.log:	L1D_total_cache_miss_rate = 0.4175
/workspace/results/baseline/3DC.log:	L1D_total_cache_miss_rate = 0.4175
/workspace/results/baseline/3DC.log:	L1D_total_cache_miss_rate = 0.4175
/workspace/results/baseline/3DC.log:	L1D_total_cache_miss_rate = 0.4175
/workspace/results/baseline/3DC.log:	L1D_total_cache_miss_rate = 0.4175
/workspace/results/baseline/3DC.log:	L1D_total_cache_miss_rate = 0.4175
/workspace/results/baseline/3DC.log:	L1D_total_cache_miss_rate = 0.4175
/workspace/results/baseline/3DC.log:	L1D_total_cache_miss_rate = 0.4175
/workspace/results/baseline/3DC.log:	L1D_total_cache_miss_rate = 0.4175
/workspace/results/baseline/3DC.log:	L1D_total_cache_miss_rate = 0.4175
/workspace/results/baseline/3DC.log:	L1D_total_cache_miss_rate = 0.4175
/workspace/results/baseline/3DC.log:	L1D_total_cache_miss_rate = 0.4175
/workspace/results/baseline/3DC.log:	L1D_total_cache_miss_rate = 0.4175
/workspace/results/baseline/3DC.log:	L1D_total_cache_miss_rate = 0.4175
/workspace/results/baseline/3DC.log:	L1D_total_cache_miss_rate = 0.4175
/workspace/results/baseline/3DC.log:	L1D_total_cache_miss_rate = 0.4175
/workspace/results/baseline/3DC.log:	L1D_total_cache_miss_rate = 0.4175
/workspace/results/baseline/3DC.log:	L1D_total_cache_miss_rate = 0.4175
/workspace/results/baseline/3DC.log:	L1D_total_cache_miss_rate = 0.4175
/workspace/results/baseline/3DC.log:	L1D_total_cache_miss_rate = 0.4175
/workspace/results/baseline/3DC.log:	L1D_total_cache_miss_rate = 0.4175
/workspace/results/baseline/3DC.log:	L1D_total_cache_miss_rate = 0.4175
/workspace/results/baseline/3DC.log:	L1D_total_cache_miss_rate = 0.4175
/workspace/results/baseline/3DC.log:	L1D_total_cache_miss_rate = 0.4175
/workspace/results/baseline/3DC.log:	L1D_total_cache_miss_rate = 0.4175
/workspace/results/baseline/3DC.log:	L1D_total_cache_miss_rate = 0.4175
/workspace/results/baseline/3DC.log:	L1D_total_cache_miss_rate = 0.4175
/workspace/results/baseline/3DC.log:	L1D_total_cache_miss_rate = 0.4175
/workspace/results/baseline/3DC.log:	L1D_total_cache_miss_rate = 0.4175
/workspace/results/baseline/3DC.log:	L1D_total_cache_miss_rate = 0.4175
/workspace/results/baseline/3DC.log:	L1D_total_cache_miss_rate = 0.4175
/workspace/results/baseline/3DC.log:	L1D_total_cache_miss_rate = 0.4175
/workspace/results/baseline/3DC.log:	L1D_total_cache_miss_rate = 0.4175
/workspace/results/baseline/3DC.log:	L1D_total_cache_miss_rate = 0.4175
/workspace/results/baseline/3DC.log:	L1D_total_cache_miss_rate = 0.4175
/workspace/results/baseline/3DC.log:	L1D_total_cache_miss_rate = 0.4175
/workspace/results/baseline/3DC.log:	L1D_total_cache_miss_rate = 0.4175
/workspace/results/baseline/3DC.log:	L1D_total_cache_miss_rate = 0.4175
/workspace/results/baseline/3DC.log:	L1D_total_cache_miss_rate = 0.4175
/workspace/results/baseline/3DC.log:	L1D_total_cache_miss_rate = 0.4175
/workspace/results/baseline/3DC.log:	L1D_total_cache_miss_rate = 0.4175
/workspace/results/baseline/BFS.log:	L1D_total_cache_miss_rate = 0.9816
/workspace/results/baseline/BFS.log:	L1D_total_cache_miss_rate = 0.9406
/workspace/results/baseline/BFS.log:	L1D_total_cache_miss_rate = 0.8135
/workspace/results/baseline/BFS.log:	L1D_total_cache_miss_rate = 0.6066
/workspace/results/baseline/BFS.log:	L1D_total_cache_miss_rate = 0.4928
/workspace/results/baseline/BFS.log:	L1D_total_cache_miss_rate = 0.4653
/workspace/results/baseline/BFS.log:	L1D_total_cache_miss_rate = 0.4592
/workspace/results/baseline/BFS.log:	L1D_total_cache_miss_rate = 0.4674
/workspace/results/baseline/BFS.log:	L1D_total_cache_miss_rate = 0.4690
/workspace/results/baseline/BFS.log:	L1D_total_cache_miss_rate = 0.4697
/workspace/results/baseline/BP.log:	L1D_total_cache_miss_rate = 0.4079
/workspace/results/baseline/BP.log:	L1D_total_cache_miss_rate = 0.3088
/workspace/results/baseline/GA.log:	L1D_total_cache_miss_rate = 0.9884
/workspace/results/baseline/GA.log:	L1D_total_cache_miss_rate = 0.4411
/workspace/results/baseline/GA.log:	L1D_total_cache_miss_rate = 0.4511
/workspace/results/baseline/GA.log:	L1D_total_cache_miss_rate = 0.4492
/workspace/results/baseline/GA.log:	L1D_total_cache_miss_rate = 0.4535
/workspace/results/baseline/GA.log:	L1D_total_cache_miss_rate = 0.4515
/workspace/results/baseline/GA.log:	L1D_total_cache_miss_rate = 0.4542
/workspace/results/baseline/GA.log:	L1D_total_cache_miss_rate = 0.4525
/workspace/results/baseline/GA.log:	L1D_total_cache_miss_rate = 0.4545
/workspace/results/baseline/GA.log:	L1D_total_cache_miss_rate = 0.4510
/workspace/results/baseline/GA.log:	L1D_total_cache_miss_rate = 0.4526
/workspace/results/baseline/GA.log:	L1D_total_cache_miss_rate = 0.4521
/workspace/results/baseline/GA.log:	L1D_total_cache_miss_rate = 0.4535
/workspace/results/baseline/GA.log:	L1D_total_cache_miss_rate = 0.4530
/workspace/results/baseline/GA.log:	L1D_total_cache_miss_rate = 0.4541
/workspace/results/baseline/GA.log:	L1D_total_cache_miss_rate = 0.4535
/workspace/results/baseline/GA.log:	L1D_total_cache_miss_rate = 0.4545
/workspace/results/baseline/GA.log:	L1D_total_cache_miss_rate = 0.4528
/workspace/results/baseline/GA.log:	L1D_total_cache_miss_rate = 0.4537
/workspace/results/baseline/GA.log:	L1D_total_cache_miss_rate = 0.4534
/workspace/results/baseline/GA.log:	L1D_total_cache_miss_rate = 0.4542
/workspace/results/baseline/GA.log:	L1D_total_cache_miss_rate = 0.4539
/workspace/results/baseline/GA.log:	L1D_total_cache_miss_rate = 0.4546
/workspace/results/baseline/GA.log:	L1D_total_cache_miss_rate = 0.4543
/workspace/results/baseline/GA.log:	L1D_total_cache_miss_rate = 0.4550
/workspace/results/baseline/GA.log:	L1D_total_cache_miss_rate = 0.4539
/workspace/results/baseline/GA.log:	L1D_total_cache_miss_rate = 0.4545
/workspace/results/baseline/GA.log:	L1D_total_cache_miss_rate = 0.4544
/workspace/results/baseline/GA.log:	L1D_total_cache_miss_rate = 0.4550
/workspace/results/baseline/GA.log:	L1D_total_cache_miss_rate = 0.4549
/workspace/results/baseline/GA.log:	L1D_total_cache_miss_rate = 0.4554
/workspace/results/baseline/GA.log:	L1D_total_cache_miss_rate = 0.4553
/workspace/results/baseline/GA.log:	L1D_total_cache_miss_rate = 0.4558
/workspace/results/baseline/GA.log:	L1D_total_cache_miss_rate = 0.4550
/workspace/results/baseline/GA.log:	L1D_total_cache_miss_rate = 0.4555
/workspace/results/baseline/GA.log:	L1D_total_cache_miss_rate = 0.4554
/workspace/results/baseline/GA.log:	L1D_total_cache_miss_rate = 0.4558
/workspace/results/baseline/GA.log:	L1D_total_cache_miss_rate = 0.4558
/workspace/results/baseline/GA.log:	L1D_total_cache_miss_rate = 0.4562
/workspace/results/baseline/GA.log:	L1D_total_cache_miss_rate = 0.4561
/workspace/results/baseline/GA.log:	L1D_total_cache_miss_rate = 0.4565
/workspace/results/baseline/GA.log:	L1D_total_cache_miss_rate = 0.4560
/workspace/results/baseline/GA.log:	L1D_total_cache_miss_rate = 0.4563
/workspace/results/baseline/GA.log:	L1D_total_cache_miss_rate = 0.4564
/workspace/results/baseline/GA.log:	L1D_total_cache_miss_rate = 0.4567
/workspace/results/baseline/GA.log:	L1D_total_cache_miss_rate = 0.4567
/workspace/results/baseline/GA.log:	L1D_total_cache_miss_rate = 0.4571
/workspace/results/baseline/GA.log:	L1D_total_cache_miss_rate = 0.4571
/workspace/results/baseline/GA.log:	L1D_total_cache_miss_rate = 0.4574
/workspace/results/baseline/GA.log:	L1D_total_cache_miss_rate = 0.4570
/workspace/results/baseline/GA.log:	L1D_total_cache_miss_rate = 0.4573
/workspace/results/baseline/GA.log:	L1D_total_cache_miss_rate = 0.4573
/workspace/results/baseline/GA.log:	L1D_total_cache_miss_rate = 0.4576
/workspace/results/baseline/GA.log:	L1D_total_cache_miss_rate = 0.4577
/workspace/results/baseline/GA.log:	L1D_total_cache_miss_rate = 0.4579
/workspace/results/baseline/GA.log:	L1D_total_cache_miss_rate = 0.4579
/workspace/results/baseline/GA.log:	L1D_total_cache_miss_rate = 0.4582
/workspace/results/baseline/GA.log:	L1D_total_cache_miss_rate = 0.4579
/workspace/results/baseline/GA.log:	L1D_total_cache_miss_rate = 0.4582
/workspace/results/baseline/GA.log:	L1D_total_cache_miss_rate = 0.4583
/workspace/results/baseline/GA.log:	L1D_total_cache_miss_rate = 0.4585
/workspace/results/baseline/GA.log:	L1D_total_cache_miss_rate = 0.4586
/workspace/results/baseline/GA.log:	L1D_total_cache_miss_rate = 0.4588
/workspace/results/baseline/GA.log:	L1D_total_cache_miss_rate = 0.4589
/workspace/results/baseline/GA.log:	L1D_total_cache_miss_rate = 0.4592
/workspace/results/baseline/GA.log:	L1D_total_cache_miss_rate = 0.4589
/workspace/results/baseline/GA.log:	L1D_total_cache_miss_rate = 0.4591
/workspace/results/baseline/GA.log:	L1D_total_cache_miss_rate = 0.4592
/workspace/results/baseline/GA.log:	L1D_total_cache_miss_rate = 0.4595
/workspace/results/baseline/GA.log:	L1D_total_cache_miss_rate = 0.4595
/workspace/results/baseline/GA.log:	L1D_total_cache_miss_rate = 0.4598
/workspace/results/baseline/GA.log:	L1D_total_cache_miss_rate = 0.4598
/workspace/results/baseline/GA.log:	L1D_total_cache_miss_rate = 0.4600
/workspace/results/baseline/GA.log:	L1D_total_cache_miss_rate = 0.4599
/workspace/results/baseline/GA.log:	L1D_total_cache_miss_rate = 0.4601
/workspace/results/baseline/GA.log:	L1D_total_cache_miss_rate = 0.4602
/workspace/results/baseline/GA.log:	L1D_total_cache_miss_rate = 0.4604
/workspace/results/baseline/GA.log:	L1D_total_cache_miss_rate = 0.4605
/workspace/results/baseline/GA.log:	L1D_total_cache_miss_rate = 0.4607
/workspace/results/baseline/GA.log:	L1D_total_cache_miss_rate = 0.4608
/workspace/results/baseline/GA.log:	L1D_total_cache_miss_rate = 0.4610
/workspace/results/baseline/GA.log:	L1D_total_cache_miss_rate = 0.4609
/workspace/results/baseline/GA.log:	L1D_total_cache_miss_rate = 0.4611
/workspace/results/baseline/GA.log:	L1D_total_cache_miss_rate = 0.4612
/workspace/results/baseline/GA.log:	L1D_total_cache_miss_rate = 0.4614
/workspace/results/baseline/GA.log:	L1D_total_cache_miss_rate = 0.4615
/workspace/results/baseline/GA.log:	L1D_total_cache_miss_rate = 0.4617
/workspace/results/baseline/GA.log:	L1D_total_cache_miss_rate = 0.4618
/workspace/results/baseline/GA.log:	L1D_total_cache_miss_rate = 0.4619
/workspace/results/baseline/GA.log:	L1D_total_cache_miss_rate = 0.4618
/workspace/results/baseline/GA.log:	L1D_total_cache_miss_rate = 0.4620
/workspace/results/baseline/GA.log:	L1D_total_cache_miss_rate = 0.4622
/workspace/results/baseline/GA.log:	L1D_total_cache_miss_rate = 0.4623
/workspace/results/baseline/GA.log:	L1D_total_cache_miss_rate = 0.4625
/workspace/results/baseline/GA.log:	L1D_total_cache_miss_rate = 0.4626
/workspace/results/baseline/GA.log:	L1D_total_cache_miss_rate = 0.4628
/workspace/results/baseline/GA.log:	L1D_total_cache_miss_rate = 0.4629
/workspace/results/baseline/GA.log:	L1D_total_cache_miss_rate = 0.4629
/workspace/results/baseline/GA.log:	L1D_total_cache_miss_rate = 0.4630
/workspace/results/baseline/GA.log:	L1D_total_cache_miss_rate = 0.4632
/workspace/results/baseline/GA.log:	L1D_total_cache_miss_rate = 0.4633
/workspace/results/baseline/GA.log:	L1D_total_cache_miss_rate = 0.4634
/workspace/results/baseline/GA.log:	L1D_total_cache_miss_rate = 0.4636
/workspace/results/baseline/GA.log:	L1D_total_cache_miss_rate = 0.4637
/workspace/results/baseline/GA.log:	L1D_total_cache_miss_rate = 0.4639
/workspace/results/baseline/GA.log:	L1D_total_cache_miss_rate = 0.4638
/workspace/results/baseline/GA.log:	L1D_total_cache_miss_rate = 0.4640
/workspace/results/baseline/GA.log:	L1D_total_cache_miss_rate = 0.4641
/workspace/results/baseline/GA.log:	L1D_total_cache_miss_rate = 0.4643
/workspace/results/baseline/GA.log:	L1D_total_cache_miss_rate = 0.4644
/workspace/results/baseline/GA.log:	L1D_total_cache_miss_rate = 0.4646
/workspace/results/baseline/GA.log:	L1D_total_cache_miss_rate = 0.4647
/workspace/results/baseline/GA.log:	L1D_total_cache_miss_rate = 0.4648
/workspace/results/baseline/GA.log:	L1D_total_cache_miss_rate = 0.4648
/workspace/results/baseline/GA.log:	L1D_total_cache_miss_rate = 0.4650
/workspace/results/baseline/GA.log:	L1D_total_cache_miss_rate = 0.4651
/workspace/results/baseline/GA.log:	L1D_total_cache_miss_rate = 0.4652
/workspace/results/baseline/GA.log:	L1D_total_cache_miss_rate = 0.4654
/workspace/results/baseline/GA.log:	L1D_total_cache_miss_rate = 0.4655
/workspace/results/baseline/GA.log:	L1D_total_cache_miss_rate = 0.4657
/workspace/results/baseline/GA.log:	L1D_total_cache_miss_rate = 0.4658
/workspace/results/baseline/GA.log:	L1D_total_cache_miss_rate = 0.4658
/workspace/results/baseline/GA.log:	L1D_total_cache_miss_rate = 0.4659
/workspace/results/baseline/GA.log:	L1D_total_cache_miss_rate = 0.4661
/workspace/results/baseline/GA.log:	L1D_total_cache_miss_rate = 0.4662
/workspace/results/baseline/GA.log:	L1D_total_cache_miss_rate = 0.4664
/workspace/results/baseline/GA.log:	L1D_total_cache_miss_rate = 0.4665
/workspace/results/baseline/GA.log:	L1D_total_cache_miss_rate = 0.4667
/workspace/results/baseline/GA.log:	L1D_total_cache_miss_rate = 0.4668
/workspace/results/baseline/GA.log:	L1D_total_cache_miss_rate = 0.4668
/workspace/results/baseline/GA.log:	L1D_total_cache_miss_rate = 0.4669
/workspace/results/baseline/GA.log:	L1D_total_cache_miss_rate = 0.4671
/workspace/results/baseline/GA.log:	L1D_total_cache_miss_rate = 0.4672
/workspace/results/baseline/GA.log:	L1D_total_cache_miss_rate = 0.4674
/workspace/results/baseline/GA.log:	L1D_total_cache_miss_rate = 0.4675
/workspace/results/baseline/GA.log:	L1D_total_cache_miss_rate = 0.4676
/workspace/results/baseline/GA.log:	L1D_total_cache_miss_rate = 0.4677
/workspace/results/baseline/GA.log:	L1D_total_cache_miss_rate = 0.4678
/workspace/results/baseline/GA.log:	L1D_total_cache_miss_rate = 0.4679
/workspace/results/baseline/GA.log:	L1D_total_cache_miss_rate = 0.4681
/workspace/results/baseline/GA.log:	L1D_total_cache_miss_rate = 0.4681
/workspace/results/baseline/GA.log:	L1D_total_cache_miss_rate = 0.4683
/workspace/results/baseline/GA.log:	L1D_total_cache_miss_rate = 0.4684
/workspace/results/baseline/GA.log:	L1D_total_cache_miss_rate = 0.4686
/workspace/results/baseline/GA.log:	L1D_total_cache_miss_rate = 0.4687
/workspace/results/baseline/GA.log:	L1D_total_cache_miss_rate = 0.4687
/workspace/results/baseline/GA.log:	L1D_total_cache_miss_rate = 0.4688
/workspace/results/baseline/GA.log:	L1D_total_cache_miss_rate = 0.4690
/workspace/results/baseline/GA.log:	L1D_total_cache_miss_rate = 0.4691
/workspace/results/baseline/GA.log:	L1D_total_cache_miss_rate = 0.4692
/workspace/results/baseline/GA.log:	L1D_total_cache_miss_rate = 0.4693
/workspace/results/baseline/GA.log:	L1D_total_cache_miss_rate = 0.4694
/workspace/results/baseline/GA.log:	L1D_total_cache_miss_rate = 0.4695
/workspace/results/baseline/GA.log:	L1D_total_cache_miss_rate = 0.4696
/workspace/results/baseline/GA.log:	L1D_total_cache_miss_rate = 0.4697
/workspace/results/baseline/GA.log:	L1D_total_cache_miss_rate = 0.4698
/workspace/results/baseline/GA.log:	L1D_total_cache_miss_rate = 0.4699
/workspace/results/baseline/GA.log:	L1D_total_cache_miss_rate = 0.4701
/workspace/results/baseline/GA.log:	L1D_total_cache_miss_rate = 0.4702
/workspace/results/baseline/GA.log:	L1D_total_cache_miss_rate = 0.4703
/workspace/results/baseline/GA.log:	L1D_total_cache_miss_rate = 0.4704
/workspace/results/baseline/GA.log:	L1D_total_cache_miss_rate = 0.4705
/workspace/results/baseline/GA.log:	L1D_total_cache_miss_rate = 0.4705
/workspace/results/baseline/GA.log:	L1D_total_cache_miss_rate = 0.4707
/workspace/results/baseline/GA.log:	L1D_total_cache_miss_rate = 0.4708
/workspace/results/baseline/GA.log:	L1D_total_cache_miss_rate = 0.4709
/workspace/results/baseline/GA.log:	L1D_total_cache_miss_rate = 0.4710
/workspace/results/baseline/GA.log:	L1D_total_cache_miss_rate = 0.4711
/workspace/results/baseline/GA.log:	L1D_total_cache_miss_rate = 0.4712
/workspace/results/baseline/GA.log:	L1D_total_cache_miss_rate = 0.4713
/workspace/results/baseline/GA.log:	L1D_total_cache_miss_rate = 0.4713
/workspace/results/baseline/GA.log:	L1D_total_cache_miss_rate = 0.4715
/workspace/results/baseline/GA.log:	L1D_total_cache_miss_rate = 0.4715
/workspace/results/baseline/GA.log:	L1D_total_cache_miss_rate = 0.4717
/workspace/results/baseline/GA.log:	L1D_total_cache_miss_rate = 0.4718
/workspace/results/baseline/GA.log:	L1D_total_cache_miss_rate = 0.4719
/workspace/results/baseline/GA.log:	L1D_total_cache_miss_rate = 0.4719
/workspace/results/baseline/GA.log:	L1D_total_cache_miss_rate = 0.4720
/workspace/results/baseline/GA.log:	L1D_total_cache_miss_rate = 0.4721
/workspace/results/baseline/GA.log:	L1D_total_cache_miss_rate = 0.4722
/workspace/results/baseline/GA.log:	L1D_total_cache_miss_rate = 0.4723
/workspace/results/baseline/GA.log:	L1D_total_cache_miss_rate = 0.4724
/workspace/results/baseline/GA.log:	L1D_total_cache_miss_rate = 0.4725
/workspace/results/baseline/GA.log:	L1D_total_cache_miss_rate = 0.4726
/workspace/results/baseline/GA.log:	L1D_total_cache_miss_rate = 0.4727
/workspace/results/baseline/GA.log:	L1D_total_cache_miss_rate = 0.4728
/workspace/results/baseline/GA.log:	L1D_total_cache_miss_rate = 0.4728
/workspace/results/baseline/GA.log:	L1D_total_cache_miss_rate = 0.4729
/workspace/results/baseline/GA.log:	L1D_total_cache_miss_rate = 0.4730
/workspace/results/baseline/GA.log:	L1D_total_cache_miss_rate = 0.4731
/workspace/results/baseline/GA.log:	L1D_total_cache_miss_rate = 0.4732
/workspace/results/baseline/GA.log:	L1D_total_cache_miss_rate = 0.4733
/workspace/results/baseline/GA.log:	L1D_total_cache_miss_rate = 0.4733
/workspace/results/baseline/GA.log:	L1D_total_cache_miss_rate = 0.4734
/workspace/results/baseline/GA.log:	L1D_total_cache_miss_rate = 0.4735
/workspace/results/baseline/GA.log:	L1D_total_cache_miss_rate = 0.4736
/workspace/results/baseline/GA.log:	L1D_total_cache_miss_rate = 0.4736
/workspace/results/baseline/GA.log:	L1D_total_cache_miss_rate = 0.4738
/workspace/results/baseline/GA.log:	L1D_total_cache_miss_rate = 0.4738
/workspace/results/baseline/GA.log:	L1D_total_cache_miss_rate = 0.4739
/workspace/results/baseline/GA.log:	L1D_total_cache_miss_rate = 0.4739
/workspace/results/baseline/GA.log:	L1D_total_cache_miss_rate = 0.4740
/workspace/results/baseline/GA.log:	L1D_total_cache_miss_rate = 0.4741
/workspace/results/baseline/GA.log:	L1D_total_cache_miss_rate = 0.4742
/workspace/results/baseline/GA.log:	L1D_total_cache_miss_rate = 0.4742
/workspace/results/baseline/GA.log:	L1D_total_cache_miss_rate = 0.4743
/workspace/results/baseline/GA.log:	L1D_total_cache_miss_rate = 0.4744
/workspace/results/baseline/GA.log:	L1D_total_cache_miss_rate = 0.4745
/workspace/results/baseline/GA.log:	L1D_total_cache_miss_rate = 0.4745
/workspace/results/baseline/GA.log:	L1D_total_cache_miss_rate = 0.4746
/workspace/results/baseline/GA.log:	L1D_total_cache_miss_rate = 0.4746
/workspace/results/baseline/GA.log:	L1D_total_cache_miss_rate = 0.4747
/workspace/results/baseline/GA.log:	L1D_total_cache_miss_rate = 0.4748
/workspace/results/baseline/GA.log:	L1D_total_cache_miss_rate = 0.4749
/workspace/results/baseline/GA.log:	L1D_total_cache_miss_rate = 0.4749
/workspace/results/baseline/GA.log:	L1D_total_cache_miss_rate = 0.4750
/workspace/results/baseline/GA.log:	L1D_total_cache_miss_rate = 0.4750
/workspace/results/baseline/GA.log:	L1D_total_cache_miss_rate = 0.4751
/workspace/results/baseline/GA.log:	L1D_total_cache_miss_rate = 0.4751
/workspace/results/baseline/GA.log:	L1D_total_cache_miss_rate = 0.4752
/workspace/results/baseline/GA.log:	L1D_total_cache_miss_rate = 0.4752
/workspace/results/baseline/GA.log:	L1D_total_cache_miss_rate = 0.4753
/workspace/results/baseline/GA.log:	L1D_total_cache_miss_rate = 0.4753
/workspace/results/baseline/GA.log:	L1D_total_cache_miss_rate = 0.4754
/workspace/results/baseline/GA.log:	L1D_total_cache_miss_rate = 0.4754
/workspace/results/baseline/GA.log:	L1D_total_cache_miss_rate = 0.4755
/workspace/results/baseline/GA.log:	L1D_total_cache_miss_rate = 0.4755
/workspace/results/baseline/GA.log:	L1D_total_cache_miss_rate = 0.4755
/workspace/results/baseline/GA.log:	L1D_total_cache_miss_rate = 0.4756
/workspace/results/baseline/GA.log:	L1D_total_cache_miss_rate = 0.4756
/workspace/results/baseline/GA.log:	L1D_total_cache_miss_rate = 0.4756
/workspace/results/baseline/GA.log:	L1D_total_cache_miss_rate = 0.4757
/workspace/results/baseline/GA.log:	L1D_total_cache_miss_rate = 0.4757
/workspace/results/baseline/GA.log:	L1D_total_cache_miss_rate = 0.4757
/workspace/results/baseline/GA.log:	L1D_total_cache_miss_rate = 0.4757
/workspace/results/baseline/GA.log:	L1D_total_cache_miss_rate = 0.4757
/workspace/results/baseline/GA.log:	L1D_total_cache_miss_rate = 0.4758
/workspace/results/baseline/GA.log:	L1D_total_cache_miss_rate = 0.4758
/workspace/results/baseline/GA.log:	L1D_total_cache_miss_rate = 0.4758
/workspace/results/baseline/GA.log:	L1D_total_cache_miss_rate = 0.4758
/workspace/results/baseline/GA.log:	L1D_total_cache_miss_rate = 0.4758
/workspace/results/baseline/GA.log:	L1D_total_cache_miss_rate = 0.4758
/workspace/results/baseline/GA.log:	L1D_total_cache_miss_rate = 0.4758
/workspace/results/baseline/GA.log:	L1D_total_cache_miss_rate = 0.4759
/workspace/results/baseline/GA.log:	L1D_total_cache_miss_rate = 0.4759
/workspace/results/baseline/GA.log:	L1D_total_cache_miss_rate = 0.4759
/workspace/results/baseline/GA.log:	L1D_total_cache_miss_rate = 0.4759
/workspace/results/baseline/GA.log:	L1D_total_cache_miss_rate = 0.4759
/workspace/results/baseline/GA.log:	L1D_total_cache_miss_rate = 0.4759
/workspace/results/baseline/GA.log:	L1D_total_cache_miss_rate = 0.4759
/workspace/results/baseline/GA.log:	L1D_total_cache_miss_rate = 0.4759
/workspace/results/baseline/GA.log:	L1D_total_cache_miss_rate = 0.4759
/workspace/results/baseline/GA.log:	L1D_total_cache_miss_rate = 0.4759
/workspace/results/baseline/GA.log:	L1D_total_cache_miss_rate = 0.4759

=== STALL SUMMARY ===
/workspace/results/baseline/3DC.log:gpgpu_n_stall_shd_mem = 23605
/workspace/results/baseline/3DC.log:gpgpu_n_stall_shd_mem = 46558
/workspace/results/baseline/3DC.log:gpgpu_n_stall_shd_mem = 69607
/workspace/results/baseline/3DC.log:gpgpu_n_stall_shd_mem = 92510
/workspace/results/baseline/3DC.log:gpgpu_n_stall_shd_mem = 115360
/workspace/results/baseline/3DC.log:gpgpu_n_stall_shd_mem = 138039
/workspace/results/baseline/3DC.log:gpgpu_n_stall_shd_mem = 160778
/workspace/results/baseline/3DC.log:gpgpu_n_stall_shd_mem = 183595
/workspace/results/baseline/3DC.log:gpgpu_n_stall_shd_mem = 206487
/workspace/results/baseline/3DC.log:gpgpu_n_stall_shd_mem = 229210
/workspace/results/baseline/3DC.log:gpgpu_n_stall_shd_mem = 252061
/workspace/results/baseline/3DC.log:gpgpu_n_stall_shd_mem = 274924
/workspace/results/baseline/3DC.log:gpgpu_n_stall_shd_mem = 297936
/workspace/results/baseline/3DC.log:gpgpu_n_stall_shd_mem = 321106
/workspace/results/baseline/3DC.log:gpgpu_n_stall_shd_mem = 343844
/workspace/results/baseline/3DC.log:gpgpu_n_stall_shd_mem = 366756
/workspace/results/baseline/3DC.log:gpgpu_n_stall_shd_mem = 389782
/workspace/results/baseline/3DC.log:gpgpu_n_stall_shd_mem = 412242
/workspace/results/baseline/3DC.log:gpgpu_n_stall_shd_mem = 434870
/workspace/results/baseline/3DC.log:gpgpu_n_stall_shd_mem = 457743
/workspace/results/baseline/3DC.log:gpgpu_n_stall_shd_mem = 480469
/workspace/results/baseline/3DC.log:gpgpu_n_stall_shd_mem = 503409
/workspace/results/baseline/3DC.log:gpgpu_n_stall_shd_mem = 526352
/workspace/results/baseline/3DC.log:gpgpu_n_stall_shd_mem = 549223
/workspace/results/baseline/3DC.log:gpgpu_n_stall_shd_mem = 572121
/workspace/results/baseline/3DC.log:gpgpu_n_stall_shd_mem = 594757
/workspace/results/baseline/3DC.log:gpgpu_n_stall_shd_mem = 617423
/workspace/results/baseline/3DC.log:gpgpu_n_stall_shd_mem = 640247
/workspace/results/baseline/3DC.log:gpgpu_n_stall_shd_mem = 663125
/workspace/results/baseline/3DC.log:gpgpu_n_stall_shd_mem = 686273
/workspace/results/baseline/3DC.log:gpgpu_n_stall_shd_mem = 709190
/workspace/results/baseline/3DC.log:gpgpu_n_stall_shd_mem = 732145
/workspace/results/baseline/3DC.log:gpgpu_n_stall_shd_mem = 754819
/workspace/results/baseline/3DC.log:gpgpu_n_stall_shd_mem = 777708
/workspace/results/baseline/3DC.log:gpgpu_n_stall_shd_mem = 800392
/workspace/results/baseline/3DC.log:gpgpu_n_stall_shd_mem = 823237
/workspace/results/baseline/3DC.log:gpgpu_n_stall_shd_mem = 846051
/workspace/results/baseline/3DC.log:gpgpu_n_stall_shd_mem = 868911
/workspace/results/baseline/3DC.log:gpgpu_n_stall_shd_mem = 891789
/workspace/results/baseline/3DC.log:gpgpu_n_stall_shd_mem = 914740
/workspace/results/baseline/3DC.log:gpgpu_n_stall_shd_mem = 937756
/workspace/results/baseline/3DC.log:gpgpu_n_stall_shd_mem = 960597
/workspace/results/baseline/3DC.log:gpgpu_n_stall_shd_mem = 983395
/workspace/results/baseline/3DC.log:gpgpu_n_stall_shd_mem = 1006055
/workspace/results/baseline/3DC.log:gpgpu_n_stall_shd_mem = 1028896
/workspace/results/baseline/3DC.log:gpgpu_n_stall_shd_mem = 1051718
/workspace/results/baseline/3DC.log:gpgpu_n_stall_shd_mem = 1074580
/workspace/results/baseline/3DC.log:gpgpu_n_stall_shd_mem = 1097534
/workspace/results/baseline/3DC.log:gpgpu_n_stall_shd_mem = 1120366
/workspace/results/baseline/3DC.log:gpgpu_n_stall_shd_mem = 1143176
/workspace/results/baseline/3DC.log:gpgpu_n_stall_shd_mem = 1165975
/workspace/results/baseline/3DC.log:gpgpu_n_stall_shd_mem = 1188812
/workspace/results/baseline/3DC.log:gpgpu_n_stall_shd_mem = 1211757
/workspace/results/baseline/3DC.log:gpgpu_n_stall_shd_mem = 1234548
/workspace/results/baseline/3DC.log:gpgpu_n_stall_shd_mem = 1257387
/workspace/results/baseline/3DC.log:gpgpu_n_stall_shd_mem = 1280340
/workspace/results/baseline/3DC.log:gpgpu_n_stall_shd_mem = 1303101
/workspace/results/baseline/3DC.log:gpgpu_n_stall_shd_mem = 1325856
/workspace/results/baseline/3DC.log:gpgpu_n_stall_shd_mem = 1348768
/workspace/results/baseline/3DC.log:gpgpu_n_stall_shd_mem = 1371569
/workspace/results/baseline/3DC.log:gpgpu_n_stall_shd_mem = 1394568
/workspace/results/baseline/3DC.log:gpgpu_n_stall_shd_mem = 1417372
/workspace/results/baseline/3DC.log:gpgpu_n_stall_shd_mem = 1440244
/workspace/results/baseline/3DC.log:gpgpu_n_stall_shd_mem = 1463105
/workspace/results/baseline/3DC.log:gpgpu_n_stall_shd_mem = 1485882
/workspace/results/baseline/3DC.log:gpgpu_n_stall_shd_mem = 1508805
/workspace/results/baseline/3DC.log:gpgpu_n_stall_shd_mem = 1531831
/workspace/results/baseline/3DC.log:gpgpu_n_stall_shd_mem = 1554644
/workspace/results/baseline/3DC.log:gpgpu_n_stall_shd_mem = 1577475
/workspace/results/baseline/3DC.log:gpgpu_n_stall_shd_mem = 1600372
/workspace/results/baseline/3DC.log:gpgpu_n_stall_shd_mem = 1623053
/workspace/results/baseline/3DC.log:gpgpu_n_stall_shd_mem = 1646012
/workspace/results/baseline/3DC.log:gpgpu_n_stall_shd_mem = 1668961
/workspace/results/baseline/3DC.log:gpgpu_n_stall_shd_mem = 1691679
/workspace/results/baseline/3DC.log:gpgpu_n_stall_shd_mem = 1714425
/workspace/results/baseline/3DC.log:gpgpu_n_stall_shd_mem = 1737293
/workspace/results/baseline/3DC.log:gpgpu_n_stall_shd_mem = 1760245
/workspace/results/baseline/3DC.log:gpgpu_n_stall_shd_mem = 1783314
/workspace/results/baseline/3DC.log:gpgpu_n_stall_shd_mem = 1805959
/workspace/results/baseline/3DC.log:gpgpu_n_stall_shd_mem = 1828819
/workspace/results/baseline/3DC.log:gpgpu_n_stall_shd_mem = 1851773
/workspace/results/baseline/3DC.log:gpgpu_n_stall_shd_mem = 1874584
/workspace/results/baseline/3DC.log:gpgpu_n_stall_shd_mem = 1897301
/workspace/results/baseline/3DC.log:gpgpu_n_stall_shd_mem = 1920354
/workspace/results/baseline/3DC.log:gpgpu_n_stall_shd_mem = 1943148
/workspace/results/baseline/3DC.log:gpgpu_n_stall_shd_mem = 1966041
/workspace/results/baseline/3DC.log:gpgpu_n_stall_shd_mem = 1988628
/workspace/results/baseline/3DC.log:gpgpu_n_stall_shd_mem = 2011299
/workspace/results/baseline/3DC.log:gpgpu_n_stall_shd_mem = 2034039
/workspace/results/baseline/3DC.log:gpgpu_n_stall_shd_mem = 2056908
/workspace/results/baseline/3DC.log:gpgpu_n_stall_shd_mem = 2079680
/workspace/results/baseline/3DC.log:gpgpu_n_stall_shd_mem = 2102471
/workspace/results/baseline/3DC.log:gpgpu_n_stall_shd_mem = 2125256
/workspace/results/baseline/3DC.log:gpgpu_n_stall_shd_mem = 2148218
/workspace/results/baseline/3DC.log:gpgpu_n_stall_shd_mem = 2171000
/workspace/results/baseline/3DC.log:gpgpu_n_stall_shd_mem = 2193809
/workspace/results/baseline/3DC.log:gpgpu_n_stall_shd_mem = 2216515
/workspace/results/baseline/3DC.log:gpgpu_n_stall_shd_mem = 2239180
/workspace/results/baseline/3DC.log:gpgpu_n_stall_shd_mem = 2262233
/workspace/results/baseline/3DC.log:gpgpu_n_stall_shd_mem = 2285325
/workspace/results/baseline/3DC.log:gpgpu_n_stall_shd_mem = 2308024
/workspace/results/baseline/3DC.log:gpgpu_n_stall_shd_mem = 2330876
/workspace/results/baseline/3DC.log:gpgpu_n_stall_shd_mem = 2353909
/workspace/results/baseline/3DC.log:gpgpu_n_stall_shd_mem = 2376741
/workspace/results/baseline/3DC.log:gpgpu_n_stall_shd_mem = 2399782
/workspace/results/baseline/3DC.log:gpgpu_n_stall_shd_mem = 2422700
/workspace/results/baseline/3DC.log:gpgpu_n_stall_shd_mem = 2445497
/workspace/results/baseline/3DC.log:gpgpu_n_stall_shd_mem = 2468300
/workspace/results/baseline/3DC.log:gpgpu_n_stall_shd_mem = 2491186
/workspace/results/baseline/3DC.log:gpgpu_n_stall_shd_mem = 2514062
/workspace/results/baseline/3DC.log:gpgpu_n_stall_shd_mem = 2537005
/workspace/results/baseline/3DC.log:gpgpu_n_stall_shd_mem = 2559954
/workspace/results/baseline/3DC.log:gpgpu_n_stall_shd_mem = 2582750
/workspace/results/baseline/3DC.log:gpgpu_n_stall_shd_mem = 2605595
/workspace/results/baseline/3DC.log:gpgpu_n_stall_shd_mem = 2628448
/workspace/results/baseline/3DC.log:gpgpu_n_stall_shd_mem = 2651328
/workspace/results/baseline/3DC.log:gpgpu_n_stall_shd_mem = 2674285
/workspace/results/baseline/3DC.log:gpgpu_n_stall_shd_mem = 2697090
/workspace/results/baseline/3DC.log:gpgpu_n_stall_shd_mem = 2719873
/workspace/results/baseline/3DC.log:gpgpu_n_stall_shd_mem = 2742912
[...]
/workspace/results/baseline/3DC.log:gpgpu_n_stall_shd_mem = 5001932
/workspace/results/baseline/3DC.log:gpgpu_n_stall_shd_mem = 5024726
/workspace/results/baseline/3DC.log:gpgpu_n_stall_shd_mem = 5047506
/workspace/results/baseline/3DC.log:gpgpu_n_stall_shd_mem = 5070183
/workspace/results/baseline/3DC.log:gpgpu_n_stall_shd_mem = 5093047
/workspace/results/baseline/3DC.log:gpgpu_n_stall_shd_mem = 5115779
/workspace/results/baseline/3DC.log:gpgpu_n_stall_shd_mem = 5138532
/workspace/results/baseline/3DC.log:gpgpu_n_stall_shd_mem = 5161625
/workspace/results/baseline/3DC.log:gpgpu_n_stall_shd_mem = 5184356
/workspace/results/baseline/3DC.log:gpgpu_n_stall_shd_mem = 5207096
/workspace/results/baseline/3DC.log:gpgpu_n_stall_shd_mem = 5229908
/workspace/results/baseline/3DC.log:gpgpu_n_stall_shd_mem = 5252752
/workspace/results/baseline/3DC.log:gpgpu_n_stall_shd_mem = 5275621
/workspace/results/baseline/3DC.log:gpgpu_n_stall_shd_mem = 5298241
/workspace/results/baseline/3DC.log:gpgpu_n_stall_shd_mem = 5321021
/workspace/results/baseline/3DC.log:gpgpu_n_stall_shd_mem = 5343742
/workspace/results/baseline/3DC.log:gpgpu_n_stall_shd_mem = 5366385
/workspace/results/baseline/3DC.log:gpgpu_n_stall_shd_mem = 5389099
/workspace/results/baseline/3DC.log:gpgpu_n_stall_shd_mem = 5411901
/workspace/results/baseline/3DC.log:gpgpu_n_stall_shd_mem = 5434691
/workspace/results/baseline/3DC.log:gpgpu_n_stall_shd_mem = 5457717
/workspace/results/baseline/3DC.log:gpgpu_n_stall_shd_mem = 5480524
/workspace/results/baseline/3DC.log:gpgpu_n_stall_shd_mem = 5503426
/workspace/results/baseline/3DC.log:gpgpu_n_stall_shd_mem = 5526264
/workspace/results/baseline/3DC.log:gpgpu_n_stall_shd_mem = 5549039
/workspace/results/baseline/3DC.log:gpgpu_n_stall_shd_mem = 5571731
/workspace/results/baseline/3DC.log:gpgpu_n_stall_shd_mem = 5594459
/workspace/results/baseline/3DC.log:gpgpu_n_stall_shd_mem = 5617108
/workspace/results/baseline/3DC.log:gpgpu_n_stall_shd_mem = 5639754
/workspace/results/baseline/3DC.log:gpgpu_n_stall_shd_mem = 5662730
/workspace/results/baseline/3DC.log:gpgpu_n_stall_shd_mem = 5685556
/workspace/results/baseline/3DC.log:gpgpu_n_stall_shd_mem = 5708516
/workspace/results/baseline/3DC.log:gpgpu_n_stall_shd_mem = 5731382
/workspace/results/baseline/3DC.log:gpgpu_n_stall_shd_mem = 5754014
/workspace/results/baseline/3DC.log:gpgpu_n_stall_shd_mem = 5776965
/workspace/results/baseline/3DC.log:gpgpu_n_stall_shd_mem = 5800017
/workspace/results/baseline/BFS.log:gpgpu_n_stall_shd_mem = 0
/workspace/results/baseline/BFS.log:gpgpu_n_stall_shd_mem = 0
/workspace/results/baseline/BFS.log:gpgpu_n_stall_shd_mem = 2
/workspace/results/baseline/BFS.log:gpgpu_n_stall_shd_mem = 138
/workspace/results/baseline/BFS.log:gpgpu_n_stall_shd_mem = 4462
/workspace/results/baseline/BFS.log:gpgpu_n_stall_shd_mem = 73900
/workspace/results/baseline/BFS.log:gpgpu_n_stall_shd_mem = 338377
/workspace/results/baseline/BFS.log:gpgpu_n_stall_shd_mem = 411706
/workspace/results/baseline/BFS.log:gpgpu_n_stall_shd_mem = 411908
/workspace/results/baseline/BFS.log:gpgpu_n_stall_shd_mem = 411908
/workspace/results/baseline/BP.log:gpgpu_n_stall_shd_mem = 74327
/workspace/results/baseline/BP.log:gpgpu_n_stall_shd_mem = 305684
/workspace/results/baseline/GA.log:gpgpu_n_stall_shd_mem = 246
/workspace/results/baseline/GA.log:gpgpu_n_stall_shd_mem = 9461
/workspace/results/baseline/GA.log:gpgpu_n_stall_shd_mem = 9705
/workspace/results/baseline/GA.log:gpgpu_n_stall_shd_mem = 18823
/workspace/results/baseline/GA.log:gpgpu_n_stall_shd_mem = 19065
/workspace/results/baseline/GA.log:gpgpu_n_stall_shd_mem = 28086
/workspace/results/baseline/GA.log:gpgpu_n_stall_shd_mem = 28326
/workspace/results/baseline/GA.log:gpgpu_n_stall_shd_mem = 37347
/workspace/results/baseline/GA.log:gpgpu_n_stall_shd_mem = 37585
/workspace/results/baseline/GA.log:gpgpu_n_stall_shd_mem = 46233
/workspace/results/baseline/GA.log:gpgpu_n_stall_shd_mem = 46469
/workspace/results/baseline/GA.log:gpgpu_n_stall_shd_mem = 55023
/workspace/results/baseline/GA.log:gpgpu_n_stall_shd_mem = 55257
/workspace/results/baseline/GA.log:gpgpu_n_stall_shd_mem = 63717
/workspace/results/baseline/GA.log:gpgpu_n_stall_shd_mem = 63949
/workspace/results/baseline/GA.log:gpgpu_n_stall_shd_mem = 72409
/workspace/results/baseline/GA.log:gpgpu_n_stall_shd_mem = 72639
/workspace/results/baseline/GA.log:gpgpu_n_stall_shd_mem = 80738
/workspace/results/baseline/GA.log:gpgpu_n_stall_shd_mem = 80966
/workspace/results/baseline/GA.log:gpgpu_n_stall_shd_mem = 88974
/workspace/results/baseline/GA.log:gpgpu_n_stall_shd_mem = 89200
/workspace/results/baseline/GA.log:gpgpu_n_stall_shd_mem = 97117
/workspace/results/baseline/GA.log:gpgpu_n_stall_shd_mem = 97341
/workspace/results/baseline/GA.log:gpgpu_n_stall_shd_mem = 105258
/workspace/results/baseline/GA.log:gpgpu_n_stall_shd_mem = 105480
/workspace/results/baseline/GA.log:gpgpu_n_stall_shd_mem = 113048
/workspace/results/baseline/GA.log:gpgpu_n_stall_shd_mem = 113268
/workspace/results/baseline/GA.log:gpgpu_n_stall_shd_mem = 120748
/workspace/results/baseline/GA.log:gpgpu_n_stall_shd_mem = 120966
/workspace/results/baseline/GA.log:gpgpu_n_stall_shd_mem = 128358
/workspace/results/baseline/GA.log:gpgpu_n_stall_shd_mem = 128574
/workspace/results/baseline/GA.log:gpgpu_n_stall_shd_mem = 135966
/workspace/results/baseline/GA.log:gpgpu_n_stall_shd_mem = 136180
/workspace/results/baseline/GA.log:gpgpu_n_stall_shd_mem = 143235
/workspace/results/baseline/GA.log:gpgpu_n_stall_shd_mem = 143447
/workspace/results/baseline/GA.log:gpgpu_n_stall_shd_mem = 150417
/workspace/results/baseline/GA.log:gpgpu_n_stall_shd_mem = 150627
/workspace/results/baseline/GA.log:gpgpu_n_stall_shd_mem = 157512
/workspace/results/baseline/GA.log:gpgpu_n_stall_shd_mem = 157720
/workspace/results/baseline/GA.log:gpgpu_n_stall_shd_mem = 164605
/workspace/results/baseline/GA.log:gpgpu_n_stall_shd_mem = 164811
/workspace/results/baseline/GA.log:gpgpu_n_stall_shd_mem = 171371
/workspace/results/baseline/GA.log:gpgpu_n_stall_shd_mem = 171575
/workspace/results/baseline/GA.log:gpgpu_n_stall_shd_mem = 178053
/workspace/results/baseline/GA.log:gpgpu_n_stall_shd_mem = 178255
/workspace/results/baseline/GA.log:gpgpu_n_stall_shd_mem = 184651
/workspace/results/baseline/GA.log:gpgpu_n_stall_shd_mem = 184851
/workspace/results/baseline/GA.log:gpgpu_n_stall_shd_mem = 191247
/workspace/results/baseline/GA.log:gpgpu_n_stall_shd_mem = 191445
/workspace/results/baseline/GA.log:gpgpu_n_stall_shd_mem = 197528
/workspace/results/baseline/GA.log:gpgpu_n_stall_shd_mem = 197724
/workspace/results/baseline/GA.log:gpgpu_n_stall_shd_mem = 203728
/workspace/results/baseline/GA.log:gpgpu_n_stall_shd_mem = 203922
/workspace/results/baseline/GA.log:gpgpu_n_stall_shd_mem = 209847
/workspace/results/baseline/GA.log:gpgpu_n_stall_shd_mem = 210039
/workspace/results/baseline/GA.log:gpgpu_n_stall_shd_mem = 215964
/workspace/results/baseline/GA.log:gpgpu_n_stall_shd_mem = 216154
/workspace/results/baseline/GA.log:gpgpu_n_stall_shd_mem = 221778
/workspace/results/baseline/GA.log:gpgpu_n_stall_shd_mem = 221966
/workspace/results/baseline/GA.log:gpgpu_n_stall_shd_mem = 227514
/workspace/results/baseline/GA.log:gpgpu_n_stall_shd_mem = 227700
/workspace/results/baseline/GA.log:gpgpu_n_stall_shd_mem = 233172
/workspace/results/baseline/GA.log:gpgpu_n_stall_shd_mem = 233358
/workspace/results/baseline/GA.log:gpgpu_n_stall_shd_mem = 238830
/workspace/results/baseline/GA.log:gpgpu_n_stall_shd_mem = 239014
/workspace/results/baseline/GA.log:gpgpu_n_stall_shd_mem = 244197
/workspace/results/baseline/GA.log:gpgpu_n_stall_shd_mem = 244379
/workspace/results/baseline/GA.log:gpgpu_n_stall_shd_mem = 249489
/workspace/results/baseline/GA.log:gpgpu_n_stall_shd_mem = 249669
/workspace/results/baseline/GA.log:gpgpu_n_stall_shd_mem = 254706
/workspace/results/baseline/GA.log:gpgpu_n_stall_shd_mem = 254884
/workspace/results/baseline/GA.log:gpgpu_n_stall_shd_mem = 259921
/workspace/results/baseline/GA.log:gpgpu_n_stall_shd_mem = 260097
/workspace/results/baseline/GA.log:gpgpu_n_stall_shd_mem = 264857
/workspace/results/baseline/GA.log:gpgpu_n_stall_shd_mem = 265031
/workspace/results/baseline/GA.log:gpgpu_n_stall_shd_mem = 269721
/workspace/results/baseline/GA.log:gpgpu_n_stall_shd_mem = 269893
/workspace/results/baseline/GA.log:gpgpu_n_stall_shd_mem = 274513
/workspace/results/baseline/GA.log:gpgpu_n_stall_shd_mem = 274683
/workspace/results/baseline/GA.log:gpgpu_n_stall_shd_mem = 279303
/workspace/results/baseline/GA.log:gpgpu_n_stall_shd_mem = 279471
/workspace/results/baseline/GA.log:gpgpu_n_stall_shd_mem = 283826
/workspace/results/baseline/GA.log:gpgpu_n_stall_shd_mem = 283992
/workspace/results/baseline/GA.log:gpgpu_n_stall_shd_mem = 288280
/workspace/results/baseline/GA.log:gpgpu_n_stall_shd_mem = 288444
/workspace/results/baseline/GA.log:gpgpu_n_stall_shd_mem = 292665
/workspace/results/baseline/GA.log:gpgpu_n_stall_shd_mem = 292827
/workspace/results/baseline/GA.log:gpgpu_n_stall_shd_mem = 297048
/workspace/results/baseline/GA.log:gpgpu_n_stall_shd_mem = 297208
/workspace/results/baseline/GA.log:gpgpu_n_stall_shd_mem = 301176
/workspace/results/baseline/GA.log:gpgpu_n_stall_shd_mem = 301334
/workspace/results/baseline/GA.log:gpgpu_n_stall_shd_mem = 305238
/workspace/results/baseline/GA.log:gpgpu_n_stall_shd_mem = 305394
/workspace/results/baseline/GA.log:gpgpu_n_stall_shd_mem = 309234
/workspace/results/baseline/GA.log:gpgpu_n_stall_shd_mem = 309388
/workspace/results/baseline/GA.log:gpgpu_n_stall_shd_mem = 313228
/workspace/results/baseline/GA.log:gpgpu_n_stall_shd_mem = 313380
/workspace/results/baseline/GA.log:gpgpu_n_stall_shd_mem = 316979
/workspace/results/baseline/GA.log:gpgpu_n_stall_shd_mem = 317129
/workspace/results/baseline/GA.log:gpgpu_n_stall_shd_mem = 320667
/workspace/results/baseline/GA.log:gpgpu_n_stall_shd_mem = 320815
/workspace/results/baseline/GA.log:gpgpu_n_stall_shd_mem = 324292
/workspace/results/baseline/GA.log:gpgpu_n_stall_shd_mem = 324438
/workspace/results/baseline/GA.log:gpgpu_n_stall_shd_mem = 327915
/workspace/results/baseline/GA.log:gpgpu_n_stall_shd_mem = 328059
/workspace/results/baseline/GA.log:gpgpu_n_stall_shd_mem = 331307
/workspace/results/baseline/GA.log:gpgpu_n_stall_shd_mem = 331449
/workspace/results/baseline/GA.log:gpgpu_n_stall_shd_mem = 334639
/workspace/results/baseline/GA.log:gpgpu_n_stall_shd_mem = 334779
/workspace/results/baseline/GA.log:gpgpu_n_stall_shd_mem = 337911
/workspace/results/baseline/GA.log:gpgpu_n_stall_shd_mem = 338049
/workspace/results/baseline/GA.log:gpgpu_n_stall_shd_mem = 341181
/workspace/results/baseline/GA.log:gpgpu_n_stall_shd_mem = 341317
/workspace/results/baseline/GA.log:gpgpu_n_stall_shd_mem = 344232
/workspace/results/baseline/GA.log:gpgpu_n_stall_shd_mem = 344366
/workspace/results/baseline/GA.log:gpgpu_n_stall_shd_mem = 347226
/workspace/results/baseline/GA.log:gpgpu_n_stall_shd_mem = 347358
/workspace/results/baseline/GA.log:gpgpu_n_stall_shd_mem = 350163
/workspace/results/baseline/GA.log:gpgpu_n_stall_shd_mem = 350293
/workspace/results/baseline/GA.log:gpgpu_n_stall_shd_mem = 353098
/workspace/results/baseline/GA.log:gpgpu_n_stall_shd_mem = 353226
/workspace/results/baseline/GA.log:gpgpu_n_stall_shd_mem = 355826
/workspace/results/baseline/GA.log:gpgpu_n_stall_shd_mem = 355952
/workspace/results/baseline/GA.log:gpgpu_n_stall_shd_mem = 358500
/workspace/results/baseline/GA.log:gpgpu_n_stall_shd_mem = 358624
/workspace/results/baseline/GA.log:gpgpu_n_stall_shd_mem = 361120
/workspace/results/baseline/GA.log:gpgpu_n_stall_shd_mem = 361244
/workspace/results/baseline/GA.log:gpgpu_n_stall_shd_mem = 363740
/workspace/results/baseline/GA.log:gpgpu_n_stall_shd_mem = 363862
/workspace/results/baseline/GA.log:gpgpu_n_stall_shd_mem = 366165
/workspace/results/baseline/GA.log:gpgpu_n_stall_shd_mem = 366285
/workspace/results/baseline/GA.log:gpgpu_n_stall_shd_mem = 368539
/workspace/results/baseline/GA.log:gpgpu_n_stall_shd_mem = 368657
/workspace/results/baseline/GA.log:gpgpu_n_stall_shd_mem = 370862
/workspace/results/baseline/GA.log:gpgpu_n_stall_shd_mem = 370978
/workspace/results/baseline/GA.log:gpgpu_n_stall_shd_mem = 373183
/workspace/results/baseline/GA.log:gpgpu_n_stall_shd_mem = 373297
/workspace/results/baseline/GA.log:gpgpu_n_stall_shd_mem = 375321
/workspace/results/baseline/GA.log:gpgpu_n_stall_shd_mem = 375433
/workspace/results/baseline/GA.log:gpgpu_n_stall_shd_mem = 377411
/workspace/results/baseline/GA.log:gpgpu_n_stall_shd_mem = 377521
/workspace/results/baseline/GA.log:gpgpu_n_stall_shd_mem = 379453
/workspace/results/baseline/GA.log:gpgpu_n_stall_shd_mem = 379561
/workspace/results/baseline/GA.log:gpgpu_n_stall_shd_mem = 381493
/workspace/results/baseline/GA.log:gpgpu_n_stall_shd_mem = 381599
/workspace/results/baseline/GA.log:gpgpu_n_stall_shd_mem = 383362
/workspace/results/baseline/GA.log:gpgpu_n_stall_shd_mem = 383466
/workspace/results/baseline/GA.log:gpgpu_n_stall_shd_mem = 385186
/workspace/results/baseline/GA.log:gpgpu_n_stall_shd_mem = 385288
/workspace/results/baseline/GA.log:gpgpu_n_stall_shd_mem = 386965
/workspace/results/baseline/GA.log:gpgpu_n_stall_shd_mem = 387065
/workspace/results/baseline/GA.log:gpgpu_n_stall_shd_mem = 388742
/workspace/results/baseline/GA.log:gpgpu_n_stall_shd_mem = 388840
/workspace/results/baseline/GA.log:gpgpu_n_stall_shd_mem = 390360
/workspace/results/baseline/GA.log:gpgpu_n_stall_shd_mem = 390456
/workspace/results/baseline/GA.log:gpgpu_n_stall_shd_mem = 391936
/workspace/results/baseline/GA.log:gpgpu_n_stall_shd_mem = 392030
/workspace/results/baseline/GA.log:gpgpu_n_stall_shd_mem = 393470
/workspace/results/baseline/GA.log:gpgpu_n_stall_shd_mem = 393562
/workspace/results/baseline/GA.log:gpgpu_n_stall_shd_mem = 395002
/workspace/results/baseline/GA.log:gpgpu_n_stall_shd_mem = 395092
/workspace/results/baseline/GA.log:gpgpu_n_stall_shd_mem = 396387
/workspace/results/baseline/GA.log:gpgpu_n_stall_shd_mem = 396475
/workspace/results/baseline/GA.log:gpgpu_n_stall_shd_mem = 397733
/workspace/results/baseline/GA.log:gpgpu_n_stall_shd_mem = 397819
/workspace/results/baseline/GA.log:gpgpu_n_stall_shd_mem = 399040
/workspace/results/baseline/GA.log:gpgpu_n_stall_shd_mem = 399124
/workspace/results/baseline/GA.log:gpgpu_n_stall_shd_mem = 400345
/workspace/results/baseline/GA.log:gpgpu_n_stall_shd_mem = 400427
/workspace/results/baseline/GA.log:gpgpu_n_stall_shd_mem = 401515
/workspace/results/baseline/GA.log:gpgpu_n_stall_shd_mem = 401595
/workspace/results/baseline/GA.log:gpgpu_n_stall_shd_mem = 402649
/workspace/results/baseline/GA.log:gpgpu_n_stall_shd_mem = 402727
/workspace/results/baseline/GA.log:gpgpu_n_stall_shd_mem = 403747
/workspace/results/baseline/GA.log:gpgpu_n_stall_shd_mem = 403823
/workspace/results/baseline/GA.log:gpgpu_n_stall_shd_mem = 404843
/workspace/results/baseline/GA.log:gpgpu_n_stall_shd_mem = 404917
/workspace/results/baseline/GA.log:gpgpu_n_stall_shd_mem = 405816
/workspace/results/baseline/GA.log:gpgpu_n_stall_shd_mem = 405888
/workspace/results/baseline/GA.log:gpgpu_n_stall_shd_mem = 406756
/workspace/results/baseline/GA.log:gpgpu_n_stall_shd_mem = 406826
/workspace/results/baseline/GA.log:gpgpu_n_stall_shd_mem = 407663
/workspace/results/baseline/GA.log:gpgpu_n_stall_shd_mem = 407731
/workspace/results/baseline/GA.log:gpgpu_n_stall_shd_mem = 408568
/workspace/results/baseline/GA.log:gpgpu_n_stall_shd_mem = 408634
/workspace/results/baseline/GA.log:gpgpu_n_stall_shd_mem = 409362
/workspace/results/baseline/GA.log:gpgpu_n_stall_shd_mem = 409426
/workspace/results/baseline/GA.log:gpgpu_n_stall_shd_mem = 410126
/workspace/results/baseline/GA.log:gpgpu_n_stall_shd_mem = 410188
/workspace/results/baseline/GA.log:gpgpu_n_stall_shd_mem = 410860
/workspace/results/baseline/GA.log:gpgpu_n_stall_shd_mem = 410922
/workspace/results/baseline/GA.log:gpgpu_n_stall_shd_mem = 411594
/workspace/results/baseline/GA.log:gpgpu_n_stall_shd_mem = 411654
/workspace/results/baseline/GA.log:gpgpu_n_stall_shd_mem = 412229
/workspace/results/baseline/GA.log:gpgpu_n_stall_shd_mem = 412287
/workspace/results/baseline/GA.log:gpgpu_n_stall_shd_mem = 412837
/workspace/results/baseline/GA.log:gpgpu_n_stall_shd_mem = 412893
/workspace/results/baseline/GA.log:gpgpu_n_stall_shd_mem = 413418
/workspace/results/baseline/GA.log:gpgpu_n_stall_shd_mem = 413472
/workspace/results/baseline/GA.log:gpgpu_n_stall_shd_mem = 413997
/workspace/results/baseline/GA.log:gpgpu_n_stall_shd_mem = 414049
/workspace/results/baseline/GA.log:gpgpu_n_stall_shd_mem = 414489
/workspace/results/baseline/GA.log:gpgpu_n_stall_shd_mem = 414539
/workspace/results/baseline/GA.log:gpgpu_n_stall_shd_mem = 414957
/workspace/results/baseline/GA.log:gpgpu_n_stall_shd_mem = 415005
/workspace/results/baseline/GA.log:gpgpu_n_stall_shd_mem = 415401
/workspace/results/baseline/GA.log:gpgpu_n_stall_shd_mem = 415447
/workspace/results/baseline/GA.log:gpgpu_n_stall_shd_mem = 415843
/workspace/results/baseline/GA.log:gpgpu_n_stall_shd_mem = 415887
/workspace/results/baseline/GA.log:gpgpu_n_stall_shd_mem = 416210
/workspace/results/baseline/GA.log:gpgpu_n_stall_shd_mem = 416252
/workspace/results/baseline/GA.log:gpgpu_n_stall_shd_mem = 416556
/workspace/results/baseline/GA.log:gpgpu_n_stall_shd_mem = 416596
/workspace/results/baseline/GA.log:gpgpu_n_stall_shd_mem = 416881
/workspace/results/baseline/GA.log:gpgpu_n_stall_shd_mem = 416919
/workspace/results/baseline/GA.log:gpgpu_n_stall_shd_mem = 417204
/workspace/results/baseline/GA.log:gpgpu_n_stall_shd_mem = 417240
/workspace/results/baseline/GA.log:gpgpu_n_stall_shd_mem = 417464
/workspace/results/baseline/GA.log:gpgpu_n_stall_shd_mem = 417498
/workspace/results/baseline/GA.log:gpgpu_n_stall_shd_mem = 417706
/workspace/results/baseline/GA.log:gpgpu_n_stall_shd_mem = 417738
/workspace/results/baseline/GA.log:gpgpu_n_stall_shd_mem = 417930
/workspace/results/baseline/GA.log:gpgpu_n_stall_shd_mem = 417960
/workspace/results/baseline/GA.log:gpgpu_n_stall_shd_mem = 418152
/workspace/results/baseline/GA.log:gpgpu_n_stall_shd_mem = 418180
/workspace/results/baseline/GA.log:gpgpu_n_stall_shd_mem = 418323
/workspace/results/baseline/GA.log:gpgpu_n_stall_shd_mem = 418349
/workspace/results/baseline/GA.log:gpgpu_n_stall_shd_mem = 418479
/workspace/results/baseline/GA.log:gpgpu_n_stall_shd_mem = 418503
/workspace/results/baseline/GA.log:gpgpu_n_stall_shd_mem = 418620
/workspace/results/baseline/GA.log:gpgpu_n_stall_shd_mem = 418642
/workspace/results/baseline/GA.log:gpgpu_n_stall_shd_mem = 418759
/workspace/results/baseline/GA.log:gpgpu_n_stall_shd_mem = 418779
/workspace/results/baseline/GA.log:gpgpu_n_stall_shd_mem = 418859
/workspace/results/baseline/GA.log:gpgpu_n_stall_shd_mem = 418877
/workspace/results/baseline/GA.log:gpgpu_n_stall_shd_mem = 418947
/workspace/results/baseline/GA.log:gpgpu_n_stall_shd_mem = 418963
/workspace/results/baseline/GA.log:gpgpu_n_stall_shd_mem = 419023
/workspace/results/baseline/GA.log:gpgpu_n_stall_shd_mem = 419037
/workspace/results/baseline/GA.log:gpgpu_n_stall_shd_mem = 419097
/workspace/results/baseline/GA.log:gpgpu_n_stall_shd_mem = 419109
/workspace/results/baseline/GA.log:gpgpu_n_stall_shd_mem = 419144
/workspace/results/baseline/GA.log:gpgpu_n_stall_shd_mem = 419154
/workspace/results/baseline/GA.log:gpgpu_n_stall_shd_mem = 419182
/workspace/results/baseline/GA.log:gpgpu_n_stall_shd_mem = 419190
/workspace/results/baseline/GA.log:gpgpu_n_stall_shd_mem = 419211
/workspace/results/baseline/GA.log:gpgpu_n_stall_shd_mem = 419217
/workspace/results/baseline/GA.log:gpgpu_n_stall_shd_mem = 419238
/workspace/results/baseline/GA.log:gpgpu_n_stall_shd_mem = 419242
/workspace/results/baseline/GA.log:gpgpu_n_stall_shd_mem = 419250
/workspace/results/baseline/GA.log:gpgpu_n_stall_shd_mem = 419252
/workspace/results/baseline/GA.log:gpgpu_n_stall_shd_mem = 419256
/workspace/results/baseline/GA.log:gpgpu_n_stall_shd_mem = 419256
/workspace/results/baseline/GA.log:gpgpu_n_stall_shd_mem = 419256
==============================
