self exe links to: /workspace/gpgpu-sim_simulations/benchmarks/src/cuda/bin/release/3MM
self exe links to: /workspace/gpgpu-sim_simulations/benchmarks/src/cuda/bin/release/3MM
10.1


        *** GPGPU-Sim Simulator Version 4.2.0  [build gpgpu-sim_git-commit-a4ce3fe_modified_0.0] ***


GPGPU-Sim PTX: simulation mode 0 (can change with PTX_SIM_MODE_FUNC environment variable:
               1=functional simulation only, 0=detailed performance simulator)
GPGPU-Sim PTX: overriding embedded ptx with ptx file (PTX_SIM_USE_PTX_FILE is set)
GPGPU-Sim: Configuration options:

-save_embedded_ptx                      0 # saves ptx files embedded in binary as <n>.ptx
-keep                                   0 # keep intermediate files created by GPGPU-Sim when interfacing with external programs
-gpgpu_ptx_save_converted_ptxplus                    0 # Saved converted ptxplus to a file
-gpgpu_occupancy_sm_number                   70 # The SM number to pass to ptxas when getting register usage for computing GPU occupancy. This parameter is required in the config.
-ptx_opcode_latency_int      4,13,4,5,145,32 # Opcode latencies for integers <ADD,MAX,MUL,MAD,DIV,SHFL>Default 1,1,19,25,145,32
-ptx_opcode_latency_fp          4,13,4,5,39 # Opcode latencies for single precision floating points <ADD,MAX,MUL,MAD,DIV>Default 1,1,1,1,30
-ptx_opcode_latency_dp         8,19,8,8,330 # Opcode latencies for double precision floating points <ADD,MAX,MUL,MAD,DIV>Default 8,8,8,8,335
-ptx_opcode_latency_sfu                  100 # Opcode latencies for SFU instructionsDefault 8
-ptx_opcode_latency_tesnor                   64 # Opcode latencies for Tensor instructionsDefault 64
-ptx_opcode_initiation_int          2,2,2,2,8,4 # Opcode initiation intervals for integers <ADD,MAX,MUL,MAD,DIV,SHFL>Default 1,1,4,4,32,4
-ptx_opcode_initiation_fp            2,2,2,2,4 # Opcode initiation intervals for single precision floating points <ADD,MAX,MUL,MAD,DIV>Default 1,1,1,1,5
-ptx_opcode_initiation_dp          4,4,4,4,130 # Opcode initiation intervals for double precision floating points <ADD,MAX,MUL,MAD,DIV>Default 8,8,8,8,130
-ptx_opcode_initiation_sfu                    8 # Opcode initiation intervals for sfu instructionsDefault 8
-ptx_opcode_initiation_tensor                   64 # Opcode initiation intervals for tensor instructionsDefault 64
-cdp_latency         7200,8000,100,12000,1600 # CDP API latency <cudaStreamCreateWithFlags, cudaGetParameterBufferV2_init_perWarp, cudaGetParameterBufferV2_perKernel, cudaLaunchDeviceV2_init_perWarp, cudaLaunchDevicV2_perKernel>Default 7200,8000,100,12000,1600
-network_mode                           2 # Interconnection network mode
-inter_config_file                   mesh # Interconnection network config file
-icnt_in_buffer_limit                  512 # in_buffer_limit
-icnt_out_buffer_limit                  512 # out_buffer_limit
-icnt_subnets                           2 # subnets
-icnt_arbiter_algo                      1 # arbiter_algo
-icnt_verbose                           0 # inct_verbose
-icnt_grant_cycles                      1 # grant_cycles
-gpgpu_ptx_use_cuobjdump                    1 # Use cuobjdump to extract ptx and sass from binaries
-gpgpu_experimental_lib_support                    0 # Try to extract code from cuda libraries [Broken because of unknown cudaGetExportTable]
-checkpoint_option                      0 #  checkpointing flag (0 = no checkpoint)
-checkpoint_kernel                      1 #  checkpointing during execution of which kernel (1- 1st kernel)
-checkpoint_CTA                         0 #  checkpointing after # of CTA (< less than total CTA)
-resume_option                          0 #  resume flag (0 = no resume)
-resume_kernel                          0 #  Resume from which kernel (1= 1st kernel)
-resume_CTA                             0 #  resume from which CTA 
-checkpoint_CTA_t                       0 #  resume from which CTA 
-checkpoint_insn_Y                      0 #  resume from which CTA 
-gpgpu_ptx_convert_to_ptxplus                    0 # Convert SASS (native ISA) to ptxplus and run ptxplus
-gpgpu_ptx_force_max_capability                   70 # Force maximum compute capability
-gpgpu_ptx_inst_debug_to_file                    0 # Dump executed instructions' debug information to file
-gpgpu_ptx_inst_debug_file       inst_debug.txt # Executed instructions' debug output file
-gpgpu_ptx_inst_debug_thread_uid                    1 # Thread UID for executed instructions' debug output
-gpgpu_simd_model                       1 # 1 = post-dominator
-gpgpu_shader_core_pipeline              2048:32 # shader core pipeline config, i.e., {<nthread>:<warpsize>}
-gpgpu_tex_cache:l1  N:4:128:256,L:R:m:N:L,T:512:8,128:2 # per-shader L1 texture cache  (READ-ONLY) config  {<nsets>:<bsize>:<assoc>,<rep>:<wr>:<alloc>:<wr_alloc>,<mshr>:<N>:<merge>,<mq>:<rf>}
-gpgpu_const_cache:l1 N:128:64:8,L:R:f:N:L,S:2:64,4 # per-shader L1 constant memory cache  (READ-ONLY) config  {<nsets>:<bsize>:<assoc>,<rep>:<wr>:<alloc>:<wr_alloc>,<mshr>:<N>:<merge>,<mq>} 
-gpgpu_cache:il1     N:64:128:16,L:R:f:N:L,S:2:48,4 # shader L1 instruction cache config  {<nsets>:<bsize>:<assoc>,<rep>:<wr>:<alloc>:<wr_alloc>,<mshr>:<N>:<merge>,<mq>} 
-gpgpu_cache:dl1     S:4:128:64,L:T:m:L:L,A:512:8,16:0,32 # per-shader L1 data cache config  {<nsets>:<bsize>:<assoc>,<rep>:<wr>:<alloc>:<wr_alloc>,<mshr>:<N>:<merge>,<mq> | none}
-gpgpu_l1_cache_write_ratio                   25 # L1D write ratio
-gpgpu_l1_banks                         4 # The number of L1 cache banks
-gpgpu_l1_banks_byte_interleaving                   32 # l1 banks byte interleaving granularity
-gpgpu_l1_banks_hashing_function                    0 # l1 banks hashing function
-gpgpu_l1_latency                      20 # L1 Hit Latency
-gpgpu_smem_latency                    20 # smem Latency
-gpgpu_cache:dl1PrefL1                 none # per-shader L1 data cache config  {<nsets>:<bsize>:<assoc>,<rep>:<wr>:<alloc>:<wr_alloc>,<mshr>:<N>:<merge>,<mq> | none}
-gpgpu_cache:dl1PrefShared                 none # per-shader L1 data cache config  {<nsets>:<bsize>:<assoc>,<rep>:<wr>:<alloc>:<wr_alloc>,<mshr>:<N>:<merge>,<mq> | none}
-gpgpu_gmem_skip_L1D                    0 # global memory access skip L1D cache (implements -Xptxas -dlcm=cg, default=no skip)
-gpgpu_perfect_mem                      0 # enable perfect memory mode (no cache miss)
-n_regfile_gating_group                    4 # group of lanes that should be read/written together)
-gpgpu_clock_gated_reg_file                    0 # enable clock gated reg file for power calculations
-gpgpu_clock_gated_lanes                    0 # enable clock gated lanes for power calculations
-gpgpu_shader_registers                65536 # Number of registers per shader core. Limits number of concurrent CTAs. (default 8192)
-gpgpu_registers_per_block                65536 # Maximum number of registers per CTA. (default 8192)
-gpgpu_ignore_resources_limitation                    0 # gpgpu_ignore_resources_limitation (default 0)
-gpgpu_shader_cta                      32 # Maximum number of concurrent CTAs in shader (default 32)
-gpgpu_num_cta_barriers                   16 # Maximum number of named barriers per CTA (default 16)
-gpgpu_n_clusters                      40 # number of processing clusters
-gpgpu_n_cores_per_cluster                    2 # number of simd cores per cluster
-gpgpu_n_cluster_ejection_buffer_size                   32 # number of packets in ejection buffer
-gpgpu_n_ldst_response_buffer_size                    2 # number of response packets in ld/st unit ejection buffer
-gpgpu_shmem_per_block                65536 # Size of shared memory per thread block or CTA (default 48kB)
-gpgpu_shmem_size                   98304 # Size of shared memory per shader core (default 16kB)
-gpgpu_shmem_option       0,8,16,32,64,96 # Option list of shared memory sizes
-gpgpu_unified_l1d_size                  128 # Size of unified data cache(L1D + shared memory) in KB
-gpgpu_adaptive_cache_config                    1 # adaptive_cache_config
-gpgpu_shmem_sizeDefault                98304 # Size of shared memory per shader core (default 16kB)
-gpgpu_shmem_size_PrefL1                16384 # Size of shared memory per shader core (default 16kB)
-gpgpu_shmem_size_PrefShared                16384 # Size of shared memory per shader core (default 16kB)
-gpgpu_shmem_num_banks                   32 # Number of banks in the shared memory in each shader core (default 16)
-gpgpu_shmem_limited_broadcast                    0 # Limit shared memory to do one broadcast per cycle (default on)
-gpgpu_shmem_warp_parts                    1 # Number of portions a warp is divided into for shared memory bank conflict check 
-gpgpu_mem_unit_ports                    1 # The number of memory transactions allowed per core cycle
-gpgpu_shmem_warp_parts                    1 # Number of portions a warp is divided into for shared memory bank conflict check 
-gpgpu_warpdistro_shader                   -1 # Specify which shader core to collect the warp size distribution from
-gpgpu_warp_issue_shader                    0 # Specify which shader core to collect the warp issue distribution from
-gpgpu_local_mem_map                    1 # Mapping from local memory space address to simulated GPU physical address space (default = enabled)
-gpgpu_num_reg_banks                    8 # Number of register banks (default = 8)
-gpgpu_reg_bank_use_warp_id                    0 # Use warp ID in mapping registers to banks (default = off)
-gpgpu_sub_core_model                    1 # Sub Core Volta/Pascal model (default = off)
-gpgpu_enable_specialized_operand_collector                    0 # enable_specialized_operand_collector
-gpgpu_operand_collector_num_units_sp                    4 # number of collector units (default = 4)
-gpgpu_operand_collector_num_units_dp                    0 # number of collector units (default = 0)
-gpgpu_operand_collector_num_units_sfu                    4 # number of collector units (default = 4)
-gpgpu_operand_collector_num_units_int                    0 # number of collector units (default = 0)
-gpgpu_operand_collector_num_units_tensor_core                    4 # number of collector units (default = 4)
-gpgpu_operand_collector_num_units_mem                    2 # number of collector units (default = 2)
-gpgpu_operand_collector_num_units_gen                    8 # number of collector units (default = 0)
-gpgpu_operand_collector_num_in_ports_sp                    1 # number of collector unit in ports (default = 1)
-gpgpu_operand_collector_num_in_ports_dp                    0 # number of collector unit in ports (default = 0)
-gpgpu_operand_collector_num_in_ports_sfu                    1 # number of collector unit in ports (default = 1)
-gpgpu_operand_collector_num_in_ports_int                    0 # number of collector unit in ports (default = 0)
-gpgpu_operand_collector_num_in_ports_tensor_core                    1 # number of collector unit in ports (default = 1)
-gpgpu_operand_collector_num_in_ports_mem                    1 # number of collector unit in ports (default = 1)
-gpgpu_operand_collector_num_in_ports_gen                    8 # number of collector unit in ports (default = 0)
-gpgpu_operand_collector_num_out_ports_sp                    1 # number of collector unit in ports (default = 1)
-gpgpu_operand_collector_num_out_ports_dp                    0 # number of collector unit in ports (default = 0)
-gpgpu_operand_collector_num_out_ports_sfu                    1 # number of collector unit in ports (default = 1)
-gpgpu_operand_collector_num_out_ports_int                    0 # number of collector unit in ports (default = 0)
-gpgpu_operand_collector_num_out_ports_tensor_core                    1 # number of collector unit in ports (default = 1)
-gpgpu_operand_collector_num_out_ports_mem                    1 # number of collector unit in ports (default = 1)
-gpgpu_operand_collector_num_out_ports_gen                    8 # number of collector unit in ports (default = 0)
-gpgpu_coalesce_arch                   60 # Coalescing arch (GT200 = 13, Fermi = 20)
-gpgpu_num_sched_per_core                    4 # Number of warp schedulers per core
-gpgpu_max_insn_issue_per_warp                    1 # Max number of instructions that can be issued per warp in one cycle by scheduler (either 1 or 2)
-gpgpu_dual_issue_diff_exec_units                    1 # should dual issue use two different execution unit resources (Default = 1)
-gpgpu_simt_core_sim_order                    1 # Select the simulation order of cores in a cluster (0=Fix, 1=Round-Robin)
-gpgpu_pipeline_widths 4,4,4,4,4,4,4,4,4,4,8,4,4 # Pipeline widths ID_OC_SP,ID_OC_DP,ID_OC_INT,ID_OC_SFU,ID_OC_MEM,OC_EX_SP,OC_EX_DP,OC_EX_INT,OC_EX_SFU,OC_EX_MEM,EX_WB,ID_OC_TENSOR_CORE,OC_EX_TENSOR_CORE
-gpgpu_tensor_core_avail                    1 # Tensor Core Available (default=0)
-gpgpu_num_sp_units                     4 # Number of SP units (default=1)
-gpgpu_num_dp_units                     4 # Number of DP units (default=0)
-gpgpu_num_int_units                    4 # Number of INT units (default=0)
-gpgpu_num_sfu_units                    4 # Number of SF units (default=1)
-gpgpu_num_tensor_core_units                    4 # Number of tensor_core units (default=1)
-gpgpu_num_mem_units                    1 # Number if ldst units (default=1) WARNING: not hooked up to anything
-gpgpu_scheduler                      lrr # Scheduler configuration: < lrr | gto | two_level_active > If two_level_active:<num_active_warps>:<inner_prioritization>:<outer_prioritization>For complete list of prioritization values see shader.h enum scheduler_prioritization_typeDefault: gto
-gpgpu_concurrent_kernel_sm                    0 # Support concurrent kernels on a SM (default = disabled)
-gpgpu_perfect_inst_const_cache                    1 # perfect inst and const cache mode, so all inst and const hits in the cache(default = disabled)
-gpgpu_inst_fetch_throughput                    4 # the number of fetched intruction per warp each cycle
-gpgpu_reg_file_port_throughput                    2 # the number ports of the register file
-specialized_unit_1         0,4,4,4,4,BRA # specialized unit config {<enabled>,<num_units>:<latency>:<initiation>,<ID_OC_SPEC>:<OC_EX_SPEC>,<NAME>}
-specialized_unit_2         0,4,4,4,4,BRA # specialized unit config {<enabled>,<num_units>:<latency>:<initiation>,<ID_OC_SPEC>:<OC_EX_SPEC>,<NAME>}
-specialized_unit_3         0,4,4,4,4,BRA # specialized unit config {<enabled>,<num_units>:<latency>:<initiation>,<ID_OC_SPEC>:<OC_EX_SPEC>,<NAME>}
-specialized_unit_4         0,4,4,4,4,BRA # specialized unit config {<enabled>,<num_units>:<latency>:<initiation>,<ID_OC_SPEC>:<OC_EX_SPEC>,<NAME>}
-specialized_unit_5         0,4,4,4,4,BRA # specialized unit config {<enabled>,<num_units>:<latency>:<initiation>,<ID_OC_SPEC>:<OC_EX_SPEC>,<NAME>}
-specialized_unit_6         0,4,4,4,4,BRA # specialized unit config {<enabled>,<num_units>:<latency>:<initiation>,<ID_OC_SPEC>:<OC_EX_SPEC>,<NAME>}
-specialized_unit_7         0,4,4,4,4,BRA # specialized unit config {<enabled>,<num_units>:<latency>:<initiation>,<ID_OC_SPEC>:<OC_EX_SPEC>,<NAME>}
-specialized_unit_8         0,4,4,4,4,BRA # specialized unit config {<enabled>,<num_units>:<latency>:<initiation>,<ID_OC_SPEC>:<OC_EX_SPEC>,<NAME>}
-gpgpu_perf_sim_memcpy                    1 # Fill the L2 cache on memcpy
-gpgpu_simple_dram_model                    0 # simple_dram_model with fixed latency and BW
-gpgpu_dram_scheduler                    1 # 0 = fifo, 1 = FR-FCFS (defaul)
-gpgpu_dram_partition_queues          64:64:64:64 # i2$:$2d:d2$:$2i
-l2_ideal                               0 # Use a ideal L2 cache that always hit
-gpgpu_cache:dl2     S:32:128:24,L:B:m:L:P,A:192:4,32:0,32 # unified banked L2 data cache config  {<nsets>:<bsize>:<assoc>,<rep>:<wr>:<alloc>:<wr_alloc>,<mshr>:<N>:<merge>,<mq>}
-gpgpu_cache:dl2_texture_only                    0 # L2 cache used for texture only
-gpgpu_n_mem                           24 # number of memory modules (e.g. memory controllers) in gpu
-gpgpu_n_sub_partition_per_mchannel                    2 # number of memory subpartition in each memory module
-gpgpu_n_mem_per_ctrlr                    1 # number of memory chips per memory controller
-gpgpu_memlatency_stat                   14 # track and display latency statistics 0x2 enables MC, 0x4 enables queue logs
-gpgpu_frfcfs_dram_sched_queue_size                   64 # 0 = unlimited (default); # entries per chip
-gpgpu_dram_return_queue_size                  192 # 0 = unlimited (default); # entries per chip
-gpgpu_dram_buswidth                   16 # default = 4 bytes (8 bytes per cycle at DDR)
-gpgpu_dram_burst_length                    2 # Burst length of each DRAM request (default = 4 data bus cycle)
-dram_data_command_freq_ratio                    2 # Frequency ratio between DRAM data bus and command bus (default = 2 times, i.e. DDR)
-gpgpu_dram_timing_opt nbk=16:CCD=1:RRD=3:RCD=12:RAS=28:RP=12:RC=40: CL=12:WL=2:CDLR=3:WR=10:nbkgrp=4:CCDL=2:RTPL=3 # DRAM timing parameters = {nbk:tCCD:tRRD:tRCD:tRAS:tRP:tRC:CL:WL:tCDLR:tWR:nbkgrp:tCCDL:tRTPL}
-gpgpu_l2_rop_latency                  160 # ROP queue latency (default 85)
-dram_latency                         100 # DRAM latency (default 30)
-dram_dual_bus_interface                  257 # dual_bus_interface (default = 0) 
-dram_bnk_indexing_policy                    1 # dram_bnk_indexing_policy (0 = normal indexing, 1 = Xoring with the higher bits) (Default = 0)
-dram_bnkgrp_indexing_policy                    1 # dram_bnkgrp_indexing_policy (0 = take higher bits, 1 = take lower bits) (Default = 0)
-dram_seperate_write_queue_enable                    1 # Seperate_Write_Queue_Enable
-dram_write_queue_size           128:108:32 # Write_Queue_Size
-dram_elimnate_rw_turnaround                    0 # elimnate_rw_turnaround i.e set tWTR and tRTW = 0
-icnt_flit_size                        40 # icnt_flit_size
-SST_mode                               0 # SST mode
-gpgpu_mem_addr_mapping dramid@8;00000000.00000000.00000000.00000000.0000RRRR.RRRRRRRR.RBBBCCCB.CCCSSSSS # mapping memory address to dram model {dramid@<start bit>;<memory address map>}
-gpgpu_mem_addr_test                    0 # run sweep test to check address mapping for aliased address
-gpgpu_mem_address_mask                    1 # 0 = old addressing mask, 1 = new addressing mask, 2 = new add. mask + flipped bank sel and chip sel bits
-gpgpu_memory_partition_indexing                    2 # 0 = no indexing, 1 = bitwise xoring, 2 = IPoly, 3 = custom indexing
-accelwattch_xml_file accelwattch_sass_sim.xml # AccelWattch XML file
-power_simulation_enabled                    0 # Turn on power simulator (1=On, 0=Off)
-power_per_cycle_dump                    0 # Dump detailed power output each cycle
-hw_perf_file_name            hw_perf.csv # Hardware Performance Statistics file
-hw_perf_bench_name                       # Kernel Name in Hardware Performance Statistics file
-power_simulation_mode                    0 # Switch performance counter input for power simulation (0=Sim, 1=HW, 2=HW-Sim Hybrid)
-dvfs_enabled                           0 # Turn on DVFS for power model
-aggregate_power_stats                    0 # Accumulate power across all kernels
-accelwattch_hybrid_perfsim_L1_RH                    0 # Get L1 Read Hits for Accelwattch-Hybrid from Accel-Sim
-accelwattch_hybrid_perfsim_L1_RM                    0 # Get L1 Read Misses for Accelwattch-Hybrid from Accel-Sim
-accelwattch_hybrid_perfsim_L1_WH                    0 # Get L1 Write Hits for Accelwattch-Hybrid from Accel-Sim
-accelwattch_hybrid_perfsim_L1_WM                    0 # Get L1 Write Misses for Accelwattch-Hybrid from Accel-Sim
-accelwattch_hybrid_perfsim_L2_RH                    0 # Get L2 Read Hits for Accelwattch-Hybrid from Accel-Sim
-accelwattch_hybrid_perfsim_L2_RM                    0 # Get L2 Read Misses for Accelwattch-Hybrid from Accel-Sim
-accelwattch_hybrid_perfsim_L2_WH                    0 # Get L2 Write Hits for Accelwattch-Hybrid from Accel-Sim
-accelwattch_hybrid_perfsim_L2_WM                    0 # Get L2 Write Misses for Accelwattch-Hybrid from Accel-Sim
-accelwattch_hybrid_perfsim_CC_ACC                    0 # Get Constant Cache Acesses for Accelwattch-Hybrid from Accel-Sim
-accelwattch_hybrid_perfsim_SHARED_ACC                    0 # Get Shared Memory Acesses for Accelwattch-Hybrid from Accel-Sim
-accelwattch_hybrid_perfsim_DRAM_RD                    0 # Get DRAM Reads for Accelwattch-Hybrid from Accel-Sim
-accelwattch_hybrid_perfsim_DRAM_WR                    0 # Get DRAM Writes for Accelwattch-Hybrid from Accel-Sim
-accelwattch_hybrid_perfsim_NOC                    0 # Get Interconnect Acesses for Accelwattch-Hybrid from Accel-Sim
-accelwattch_hybrid_perfsim_PIPE_DUTY                    0 # Get Pipeline Duty Cycle Acesses for Accelwattch-Hybrid from Accel-Sim
-accelwattch_hybrid_perfsim_NUM_SM_IDLE                    0 # Get Number of Idle SMs for Accelwattch-Hybrid from Accel-Sim
-accelwattch_hybrid_perfsim_CYCLES                    0 # Get Executed Cycles for Accelwattch-Hybrid from Accel-Sim
-accelwattch_hybrid_perfsim_VOLTAGE                    0 # Get Chip Voltage for Accelwattch-Hybrid from Accel-Sim
-power_trace_enabled                    0 # produce a file for the power trace (1=On, 0=Off)
-power_trace_zlevel                     6 # Compression level of the power trace output log (0=no comp, 9=highest)
-steady_power_levels_enabled                    0 # produce a file for the steady power levels (1=On, 0=Off)
-steady_state_definition                  8:4 # allowed deviation:number of samples
-gpgpu_max_cycle                        0 # terminates gpu simulation early (0 = no limit)
-gpgpu_max_insn                         0 # terminates gpu simulation early (0 = no limit)
-gpgpu_max_cta                          0 # terminates gpu simulation early (0 = no limit)
-gpgpu_max_completed_cta                    0 # terminates gpu simulation early (0 = no limit)
-gpgpu_runtime_stat                   500 # display runtime statistics such as dram utilization {<freq>:<flag>}
-liveness_message_freq                    1 # Minimum number of seconds between simulation liveness messages (0 = always print)
-gpgpu_compute_capability_major                    7 # Major compute capability version number
-gpgpu_compute_capability_minor                    0 # Minor compute capability version number
-gpgpu_flush_l1_cache                    1 # Flush L1 cache at the end of each kernel call
-gpgpu_flush_l2_cache                    0 # Flush L2 cache at the end of each kernel call
-gpgpu_deadlock_detect                    1 # Stop the simulation at deadlock (1=on (default), 0=off)
-gpgpu_ptx_instruction_classification                    0 # if enabled will classify ptx instruction types per kernel (Max 255 kernels now)
-gpgpu_ptx_sim_mode                     0 # Select between Performance (default) or Functional simulation (1)
-gpgpu_clock_domains 1200.0:1200.0:1200.0:850.0 # Clock Domain Frequencies in MhZ {<Core Clock>:<ICNT Clock>:<L2 Clock>:<DRAM Clock>}
-gpgpu_max_concurrent_kernel                  128 # maximum kernels that can run concurrently on GPU, set this value according to max resident grids for your compute capability
-gpgpu_cflog_interval                    0 # Interval between each snapshot in control flow logger
-visualizer_enabled                     0 # Turn on visualizer output (1=On, 0=Off)
-visualizer_outputfile                 NULL # Specifies the output log file for visualizer
-visualizer_zlevel                      6 # Compression level of the visualizer output log (0=no comp, 9=highest)
-gpgpu_stack_size_limit                 1024 # GPU thread stack size
-gpgpu_heap_size_limit              8388608 # GPU malloc heap size 
-gpgpu_runtime_sync_depth_limit                    2 # GPU device runtime synchronize depth
-gpgpu_runtime_pending_launch_count_limit                 2048 # GPU device runtime pending launch count
-trace_enabled                          0 # Turn on traces
-trace_components                    none # comma seperated list of traces to enable. Complete list found in trace_streams.tup. Default none
-trace_sampling_core                    0 # The core which is printed using CORE_DPRINTF. Default 0
-trace_sampling_memory_partition                   -1 # The memory partition which is printed using MEMPART_DPRINTF. Default -1 (i.e. all)
-enable_ptx_file_line_stats                    1 # Turn on PTX source line statistic profiling. (1 = On)
-ptx_line_stats_filename gpgpu_inst_stats.txt # Output file for PTX source line statistics.
-gpgpu_kernel_launch_latency                    0 # Kernel launch latency in cycles. Default: 0
-gpgpu_cdp_enabled                      0 # Turn on CDP
-gpgpu_TB_launch_latency                    0 # thread block launch latency in cycles. Default: 0
DRAM Timing Options:
nbk                                    16 # number of banks
CCD                                     1 # column to column delay
RRD                              7d2815bef29ded3bed7b0485140ce97b  /workspace/gpgpu-sim_simulations/benchmarks/src/cuda/bin/release/3MM
Extracting PTX file and ptxas options    1: 3MM.1.sm_30.ptx -arch=sm_30
       3 # minimal delay between activation of rows in different banks
RCD                                    12 # row to column delay
RAS                                    28 # time needed to activate row
RP                                     12 # time needed to precharge (deactivate) row
RC                                     40 # row cycle time
CDLR                                    3 # switching from write to read (changes tWTR)
WR                                     10 # last data-in to row precharge
CL                                     12 # CAS latency
WL                                      2 # Write latency
nbkgrp                                  4 # number of bank groups
CCDL                                    2 # column to column delay between accesses to different bank groups
RTPL                                    3 # read to precharge delay between accesses to different bank groups
Total number of memory sub partition = 48
addr_dec_mask[CHIP]  = 0000000000000000 	high:64 low:0
addr_dec_mask[BK]    = 0000000000007100 	high:15 low:8
addr_dec_mask[ROW]   = 000000000fff8000 	high:28 low:15
addr_dec_mask[COL]   = 0000000000000eff 	high:12 low:0
addr_dec_mask[BURST] = 000000000000001f 	high:5 low:0
sub_partition_id_mask = 0000000000000100
GPGPU-Sim uArch: clock freqs: 1200000000.000000:1200000000.000000:1200000000.000000:850000000.000000
GPGPU-Sim uArch: clock periods: 0.00000000083333333333:0.00000000083333333333:0.00000000083333333333:0.00000000117647058824
*** Initializing Memory Statistics ***
GPGPU-Sim uArch: performance model initialization complete.
GPGPU-Sim PTX: __cudaRegisterFatBinary, fat_cubin_handle = 1, filename=default
self exe links to: /workspace/gpgpu-sim_simulations/benchmarks/src/cuda/bin/release/3MM
Running md5sum using "md5sum /workspace/gpgpu-sim_simulations/benchmarks/src/cuda/bin/release/3MM "
self exe links to: /workspace/gpgpu-sim_simulations/benchmarks/src/cuda/bin/release/3MM
Extracting specific PTX file named 3MM.1.sm_30.ptx 
GPGPU-Sim PTX: __cudaRegisterFunction _Z11mm3_kernel3PfS_S_ : hostFun 0x0x64a465402089, fat_cubin_handle = 1
GPGPU-Sim PTX: Parsing 3MM.1.sm_30.ptx
GPGPU-Sim PTX: instruction assembly for function '_Z11mm3_kernel1PfS_S_'...   done.
GPGPU-Sim PTX: instruction assembly for function '_Z11mm3_kernel2PfS_S_'...   done.
GPGPU-Sim PTX: instruction assembly for function '_Z11mm3_kernel3PfS_S_'...   done.
GPGPU-Sim PTX: finished parsing EMBEDDED .ptx file 3MM.1.sm_30.ptx
GPGPU-Sim PTX: loading globals with explicit initializers... 
GPGPU-Sim PTX: finished loading globals (0 bytes total).
GPGPU-Sim PTX: loading constants with explicit initializers...  done.
GPGPU-Sim PTX: Loading PTXInfo from 3MM.1.sm_30.ptx
GPGPU-Sim PTX: Kernel '_Z11mm3_kernel3PfS_S_' : regs=21, lmem=0, smem=0, cmem=344
GPGPU-Sim PTX: Kernel '_Z11mm3_kernel2PfS_S_' : regs=21, lmem=0, smem=0, cmem=344
GPGPU-Sim PTX: Kernel '_Z11mm3_kernel1PfS_S_' : regs=21, lmem=0, smem=0, cmem=344
GPGPU-Sim PTX: __cudaRegisterFunction _Z11mm3_kernel2PfS_S_ : hostFun 0x0x64a465401f04, fat_cubin_handle = 1
GPGPU-Sim PTX: __cudaRegisterFunction _Z11mm3_kernel1PfS_S_ : hostFun 0x0x64a465401d7f, fat_cubin_handle = 1
setting device 0 with name GPGPU-Sim_vGPGPU-Sim Simulator Version 4.2.0 
GPGPU-Sim PTX: Setting up arguments for 8 bytes starting at 0x7ffca9b831b8..
GPGPU-Sim PTX: Setting up arguments for 8 bytes starting at 0x7ffca9b831b0..
GPGPU-Sim PTX: Setting up arguments for 8 bytes starting at 0x7ffca9b831a8..

GPGPU-Sim PTX: cudaLaunch for 0x0x64a465401d7f (mode=performance simulation) on stream 0
GPGPU-Sim PTX: finding reconvergence points for '_Z11mm3_kernel1PfS_S_'...
GPGPU-Sim PTX: Finding dominators for '_Z11mm3_kernel1PfS_S_'...
GPGPU-Sim PTX: Finding immediate dominators for '_Z11mm3_kernel1PfS_S_'...
GPGPU-Sim PTX: Finding postdominators for '_Z11mm3_kernel1PfS_S_'...
GPGPU-Sim PTX: Finding immediate postdominators for '_Z11mm3_kernel1PfS_S_'...
GPGPU-Sim PTX: pre-decoding instructions for '_Z11mm3_kernel1PfS_S_'...
GPGPU-Sim PTX: reconvergence points for _Z11mm3_kernel1PfS_S_...
GPGPU-Sim PTX:  1 (potential) branch divergence @  PC=0x070 (3MM.1.sm_30.ptx:41) @%p3 bra BB0_3;
GPGPU-Sim PTX:    immediate post dominator      @  PC=0x220 (3MM.1.sm_30.ptx:100) ret;
GPGPU-Sim PTX:  2 (potential) branch divergence @  PC=0x218 (3MM.1.sm_30.ptx:97) @%p4 bra BB0_2;
GPGPU-Sim PTX:    immediate post dominator      @  PC=0x220 (3MM.1.sm_30.ptx:100) ret;
GPGPU-Sim PTX: ... end of reconvergence points for _Z11mm3_kernel1PfS_S_
GPGPU-Sim PTX: ... done pre-decoding instructions for '_Z11mm3_kernel1PfS_S_'.
GPGPU-Sim PTX: pushing kernel '_Z11mm3_kernel1PfS_S_' to stream 0, gridDim= (16,64,1) blockDim = (32,8,1) 
GPGPU-Sim uArch: Shader 0 bind to kernel 1 '_Z11mm3_kernel1PfS_S_'
GPGPU-Sim uArch: CTA/core = 8, limited by: threads
GPGPU-Sim: Reconfigure L1 cache to 128KB
GPGPU-Sim uArch: Shader 2 bind to kernel 1 '_Z11mm3_kernel1PfS_S_'
GPGPU-Sim uArch: Shader 4 bind to kernel 1 '_Z11mm3_kernel1PfS_S_'
GPGPU-Sim uArch: Shader 6 bind to kernel 1 '_Z11mm3_kernel1PfS_S_'
GPGPU-Sim uArch: Shader 8 bind to kernel 1 '_Z11mm3_kernel1PfS_S_'
GPGPU-Sim uArch: Shader 10 bind to kernel 1 '_Z11mm3_kernel1PfS_S_'
GPGPU-Sim uArch: Shader 12 bind to kernel 1 '_Z11mm3_kernel1PfS_S_'
GPGPU-Sim uArch: Shader 14 bind to kernel 1 '_Z11mm3_kernel1PfS_S_'
GPGPU-Sim uArch: Shader 16 bind to kernel 1 '_Z11mm3_kernel1PfS_S_'
GPGPU-Sim uArch: Shader 18 bind to kernel 1 '_Z11mm3_kernel1PfS_S_'
GPGPU-Sim uArch: Shader 20 bind to kernel 1 '_Z11mm3_kernel1PfS_S_'
GPGPU-Sim uArch: Shader 22 bind to kernel 1 '_Z11mm3_kernel1PfS_S_'
GPGPU-Sim uArch: Shader 24 bind to kernel 1 '_Z11mm3_kernel1PfS_S_'
GPGPU-Sim uArch: Shader 26 bind to kernel 1 '_Z11mm3_kernel1PfS_S_'
GPGPU-Sim uArch: Shader 28 bind to kernel 1 '_Z11mm3_kernel1PfS_S_'
GPGPU-Sim uArch: Shader 30 bind to kernel 1 '_Z11mm3_kernel1PfS_S_'
GPGPU-Sim uArch: Shader 32 bind to kernel 1 '_Z11mm3_kernel1PfS_S_'
GPGPU-Sim uArch: Shader 34 bind to kernel 1 '_Z11mm3_kernel1PfS_S_'
GPGPU-Sim uArch: Shader 36 bind to kernel 1 '_Z11mm3_kernel1PfS_S_'
GPGPU-Sim uArch: Shader 38 bind to kernel 1 '_Z11mm3_kernel1PfS_S_'
GPGPU-Sim uArch: Shader 40 bind to kernel 1 '_Z11mm3_kernel1PfS_S_'
GPGPU-Sim uArch: Shader 42 bind to kernel 1 '_Z11mm3_kernel1PfS_S_'
GPGPU-Sim uArch: Shader 44 bind to kernel 1 '_Z11mm3_kernel1PfS_S_'
GPGPU-Sim uArch: Shader 46 bind to kernel 1 '_Z11mm3_kernel1PfS_S_'
GPGPU-Sim uArch: Shader 48 bind to kernel 1 '_Z11mm3_kernel1PfS_S_'
GPGPU-Sim uArch: Shader 50 bind to kernel 1 '_Z11mm3_kernel1PfS_S_'
GPGPU-Sim uArch: Shader 52 bind to kernel 1 '_Z11mm3_kernel1PfS_S_'
GPGPU-Sim uArch: Shader 54 bind to kernel 1 '_Z11mm3_kernel1PfS_S_'
GPGPU-Sim uArch: Shader 56 bind to kernel 1 '_Z11mm3_kernel1PfS_S_'
GPGPU-Sim uArch: Shader 58 bind to kernel 1 '_Z11mm3_kernel1PfS_S_'
GPGPU-Sim uArch: Shader 60 bind to kernel 1 '_Z11mm3_kernel1PfS_S_'
GPGPU-Sim uArch: Shader 62 bind to kernel 1 '_Z11mm3_kernel1PfS_S_'
GPGPU-Sim uArch: Shader 64 bind to kernel 1 '_Z11mm3_kernel1PfS_S_'
GPGPU-Sim uArch: Shader 66 bind to kernel 1 '_Z11mm3_kernel1PfS_S_'
GPGPU-Sim uArch: Shader 68 bind to kernel 1 '_Z11mm3_kernel1PfS_S_'
GPGPU-Sim uArch: Shader 70 bind to kernel 1 '_Z11mm3_kernel1PfS_S_'
GPGPU-Sim uArch: Shader 72 bind to kernel 1 '_Z11mm3_kernel1PfS_S_'
GPGPU-Sim uArch: Shader 74 bind to kernel 1 '_Z11mm3_kernel1PfS_S_'
GPGPU-Sim uArch: Shader 76 bind to kernel 1 '_Z11mm3_kernel1PfS_S_'
GPGPU-Sim uArch: Shader 78 bind to kernel 1 '_Z11mm3_kernel1PfS_S_'
GPGPU-Sim uArch: Shader 1 bind to kernel 1 '_Z11mm3_kernel1PfS_S_'
GPGPU-Sim uArch: Shader 3 bind to kernel 1 '_Z11mm3_kernel1PfS_S_'
GPGPU-Sim uArch: Shader 5 bind to kernel 1 '_Z11mm3_kernel1PfS_S_'
GPGPU-Sim uArch: Shader 7 bind to kernel 1 '_Z11mm3_kernel1PfS_S_'
GPGPU-Sim uArch: Shader 9 bind to kernel 1 '_Z11mm3_kernel1PfS_S_'
GPGPU-Sim uArch: Shader 11 bind to kernel 1 '_Z11mm3_kernel1PfS_S_'
GPGPU-Sim uArch: Shader 13 bind to kernel 1 '_Z11mm3_kernel1PfS_S_'
GPGPU-Sim uArch: Shader 15 bind to kernel 1 '_Z11mm3_kernel1PfS_S_'
GPGPU-Sim uArch: Shader 17 bind to kernel 1 '_Z11mm3_kernel1PfS_S_'
GPGPU-Sim uArch: Shader 19 bind to kernel 1 '_Z11mm3_kernel1PfS_S_'
GPGPU-Sim uArch: Shader 21 bind to kernel 1 '_Z11mm3_kernel1PfS_S_'
GPGPU-Sim uArch: Shader 23 bind to kernel 1 '_Z11mm3_kernel1PfS_S_'
GPGPU-Sim uArch: Shader 25 bind to kernel 1 '_Z11mm3_kernel1PfS_S_'
GPGPU-Sim uArch: Shader 27 bind to kernel 1 '_Z11mm3_kernel1PfS_S_'
GPGPU-Sim uArch: Shader 29 bind to kernel 1 '_Z11mm3_kernel1PfS_S_'
GPGPU-Sim uArch: Shader 31 bind to kernel 1 '_Z11mm3_kernel1PfS_S_'
GPGPU-Sim uArch: Shader 33 bind to kernel 1 '_Z11mm3_kernel1PfS_S_'
GPGPU-Sim uArch: Shader 35 bind to kernel 1 '_Z11mm3_kernel1PfS_S_'
GPGPU-Sim uArch: Shader 37 bind to kernel 1 '_Z11mm3_kernel1PfS_S_'
GPGPU-Sim uArch: Shader 39 bind to kernel 1 '_Z11mm3_kernel1PfS_S_'
GPGPU-Sim uArch: Shader 41 bind to kernel 1 '_Z11mm3_kernel1PfS_S_'
GPGPU-Sim uArch: Shader 43 bind to kernel 1 '_Z11mm3_kernel1PfS_S_'
GPGPU-Sim uArch: Shader 45 bind to kernel 1 '_Z11mm3_kernel1PfS_S_'
GPGPU-Sim uArch: Shader 47 bind to kernel 1 '_Z11mm3_kernel1PfS_S_'
GPGPU-Sim uArch: Shader 49 bind to kernel 1 '_Z11mm3_kernel1PfS_S_'
GPGPU-Sim uArch: Shader 51 bind to kernel 1 '_Z11mm3_kernel1PfS_S_'
GPGPU-Sim uArch: Shader 53 bind to kernel 1 '_Z11mm3_kernel1PfS_S_'
GPGPU-Sim uArch: Shader 55 bind to kernel 1 '_Z11mm3_kernel1PfS_S_'
GPGPU-Sim uArch: Shader 57 bind to kernel 1 '_Z11mm3_kernel1PfS_S_'
GPGPU-Sim uArch: Shader 59 bind to kernel 1 '_Z11mm3_kernel1PfS_S_'
GPGPU-Sim uArch: Shader 61 bind to kernel 1 '_Z11mm3_kernel1PfS_S_'
GPGPU-Sim uArch: Shader 63 bind to kernel 1 '_Z11mm3_kernel1PfS_S_'
GPGPU-Sim uArch: Shader 65 bind to kernel 1 '_Z11mm3_kernel1PfS_S_'
GPGPU-Sim uArch: Shader 67 bind to kernel 1 '_Z11mm3_kernel1PfS_S_'
GPGPU-Sim uArch: Shader 69 bind to kernel 1 '_Z11mm3_kernel1PfS_S_'
GPGPU-Sim uArch: Shader 71 bind to kernel 1 '_Z11mm3_kernel1PfS_S_'
GPGPU-Sim uArch: Shader 73 bind to kernel 1 '_Z11mm3_kernel1PfS_S_'
GPGPU-Sim uArch: Shader 75 bind to kernel 1 '_Z11mm3_kernel1PfS_S_'
GPGPU-Sim uArch: Shader 77 bind to kernel 1 '_Z11mm3_kernel1PfS_S_'
GPGPU-Sim uArch: Shader 79 bind to kernel 1 '_Z11mm3_kernel1PfS_S_'
Destroy streams for kernel 1: size 0
kernel_name = _Z11mm3_kernel1PfS_S_ 
kernel_launch_uid = 1 
kernel_stream_id = 0
gpu_sim_cycle = 1032236
gpu_sim_insn = 678166528
gpu_ipc =     656.9879
gpu_tot_sim_cycle = 1032236
gpu_tot_sim_insn = 678166528
gpu_tot_ipc =     656.9879
gpu_tot_issued_cta = 1024
gpu_occupancy = 99.1316% 
gpu_tot_occupancy = 99.1316% 
max_total_param_size = 0
gpu_stall_dramfull = 574872
gpu_stall_icnt2sh    = 781727
partiton_level_parallism =      17.5401
partiton_level_parallism_total  =      17.5401
partiton_level_parallism_util =      17.6062
partiton_level_parallism_util_total  =      17.6062
L2_BW  =     673.5380 GB/Sec
L2_BW_total  =     673.5380 GB/Sec
gpu_total_sim_rate=100187

========= Core cache stats =========
L1I_cache:
	L1I_total_cache_accesses = 0
	L1I_total_cache_misses = 0
	L1I_total_cache_pending_hits = 0
	L1I_total_cache_reservation_fails = 0
L1D_cache:
	L1D_cache_core[0]: Access = 590336, Miss = 12800, Miss_rate = 0.022, Pending_hits = 28647, Reservation_fails = 2657827
	L1D_cache_core[1]: Access = 590336, Miss = 12800, Miss_rate = 0.022, Pending_hits = 28647, Reservation_fails = 2669596
	L1D_cache_core[2]: Access = 590336, Miss = 12800, Miss_rate = 0.022, Pending_hits = 28622, Reservation_fails = 2667854
	L1D_cache_core[3]: Access = 590336, Miss = 12800, Miss_rate = 0.022, Pending_hits = 28669, Reservation_fails = 2691752
	L1D_cache_core[4]: Access = 590336, Miss = 12800, Miss_rate = 0.022, Pending_hits = 28640, Reservation_fails = 2690407
	L1D_cache_core[5]: Access = 590336, Miss = 12800, Miss_rate = 0.022, Pending_hits = 28642, Reservation_fails = 2688883
	L1D_cache_core[6]: Access = 590336, Miss = 12800, Miss_rate = 0.022, Pending_hits = 28625, Reservation_fails = 2675392
	L1D_cache_core[7]: Access = 590336, Miss = 12800, Miss_rate = 0.022, Pending_hits = 28631, Reservation_fails = 2704099
	L1D_cache_core[8]: Access = 1180672, Miss = 47104, Miss_rate = 0.040, Pending_hits = 257728, Reservation_fails = 2805195
	L1D_cache_core[9]: Access = 885504, Miss = 29952, Miss_rate = 0.034, Pending_hits = 143366, Reservation_fails = 2732803
	L1D_cache_core[10]: Access = 1180672, Miss = 47104, Miss_rate = 0.040, Pending_hits = 257061, Reservation_fails = 2804797
	L1D_cache_core[11]: Access = 885504, Miss = 29952, Miss_rate = 0.034, Pending_hits = 143122, Reservation_fails = 2710988
	L1D_cache_core[12]: Access = 885504, Miss = 30032, Miss_rate = 0.034, Pending_hits = 118687, Reservation_fails = 2741995
	L1D_cache_core[13]: Access = 885504, Miss = 28416, Miss_rate = 0.032, Pending_hits = 121251, Reservation_fails = 3739545
	L1D_cache_core[14]: Access = 885504, Miss = 26368, Miss_rate = 0.030, Pending_hits = 98868, Reservation_fails = 3665654
	L1D_cache_core[15]: Access = 1180672, Miss = 45632, Miss_rate = 0.039, Pending_hits = 230204, Reservation_fails = 4162462
	L1D_cache_core[16]: Access = 1180672, Miss = 47616, Miss_rate = 0.040, Pending_hits = 254645, Reservation_fails = 2827512
	L1D_cache_core[17]: Access = 1180672, Miss = 48128, Miss_rate = 0.041, Pending_hits = 256995, Reservation_fails = 2774822
	L1D_cache_core[18]: Access = 1180672, Miss = 47616, Miss_rate = 0.040, Pending_hits = 256794, Reservation_fails = 2811874
	L1D_cache_core[19]: Access = 1180672, Miss = 47616, Miss_rate = 0.040, Pending_hits = 258384, Reservation_fails = 2735677
	L1D_cache_core[20]: Access = 1180672, Miss = 45656, Miss_rate = 0.039, Pending_hits = 234183, Reservation_fails = 4273153
	L1D_cache_core[21]: Access = 1180672, Miss = 47616, Miss_rate = 0.040, Pending_hits = 248739, Reservation_fails = 2890779
	L1D_cache_core[22]: Access = 1180672, Miss = 47616, Miss_rate = 0.040, Pending_hits = 257767, Reservation_fails = 2723268
	L1D_cache_core[23]: Access = 1180672, Miss = 48640, Miss_rate = 0.041, Pending_hits = 256922, Reservation_fails = 2784421
	L1D_cache_core[24]: Access = 885504, Miss = 30464, Miss_rate = 0.034, Pending_hits = 142522, Reservation_fails = 2752046
	L1D_cache_core[25]: Access = 590336, Miss = 12800, Miss_rate = 0.022, Pending_hits = 28637, Reservation_fails = 2641383
	L1D_cache_core[26]: Access = 590336, Miss = 12800, Miss_rate = 0.022, Pending_hits = 28659, Reservation_fails = 2653797
	L1D_cache_core[27]: Access = 590336, Miss = 12800, Miss_rate = 0.022, Pending_hits = 28617, Reservation_fails = 2650647
	L1D_cache_core[28]: Access = 885504, Miss = 28460, Miss_rate = 0.032, Pending_hits = 121300, Reservation_fails = 3617700
	L1D_cache_core[29]: Access = 885504, Miss = 28544, Miss_rate = 0.032, Pending_hits = 120469, Reservation_fails = 3525835
	L1D_cache_core[30]: Access = 885504, Miss = 29952, Miss_rate = 0.034, Pending_hits = 129904, Reservation_fails = 2747734
	L1D_cache_core[31]: Access = 885504, Miss = 28512, Miss_rate = 0.032, Pending_hits = 120776, Reservation_fails = 3729902
	L1D_cache_core[32]: Access = 1180672, Miss = 47616, Miss_rate = 0.040, Pending_hits = 251164, Reservation_fails = 2788155
	L1D_cache_core[33]: Access = 1180672, Miss = 47616, Miss_rate = 0.040, Pending_hits = 257561, Reservation_fails = 2800020
	L1D_cache_core[34]: Access = 1180672, Miss = 45680, Miss_rate = 0.039, Pending_hits = 223905, Reservation_fails = 3901090
	L1D_cache_core[35]: Access = 1180672, Miss = 48128, Miss_rate = 0.041, Pending_hits = 250691, Reservation_fails = 2807561
	L1D_cache_core[36]: Access = 1180672, Miss = 45596, Miss_rate = 0.039, Pending_hits = 232553, Reservation_fails = 3944168
	L1D_cache_core[37]: Access = 1180672, Miss = 47104, Miss_rate = 0.040, Pending_hits = 241057, Reservation_fails = 2889312
	L1D_cache_core[38]: Access = 1180672, Miss = 47616, Miss_rate = 0.040, Pending_hits = 250614, Reservation_fails = 2827950
	L1D_cache_core[39]: Access = 1180672, Miss = 47104, Miss_rate = 0.040, Pending_hits = 238722, Reservation_fails = 2783223
	L1D_total_cache_accesses = 37781504
	L1D_total_cache_misses = 1328256
	L1D_total_cache_miss_rate = 0.0352
	L1D_total_cache_pending_hits = 6290990
	L1D_total_cache_reservation_fails = 119691278
	L1D_cache_data_port_util = 0.502
	L1D_cache_fill_port_util = 0.022
L1C_cache:
	L1C_total_cache_accesses = 0
	L1C_total_cache_misses = 0
	L1C_total_cache_pending_hits = 0
	L1C_total_cache_reservation_fails = 0
L1T_cache:
	L1T_total_cache_accesses = 0
	L1T_total_cache_misses = 0
	L1T_total_cache_pending_hits = 0
	L1T_total_cache_reservation_fails = 0

Total_core_cache_stats:
	Total_core_cache_stats_breakdown[GLOBAL_ACC_R][HIT] = 13385042
	Total_core_cache_stats_breakdown[GLOBAL_ACC_R][HIT_RESERVED] = 6290990
	Total_core_cache_stats_breakdown[GLOBAL_ACC_R][MISS] = 332064
	Total_core_cache_stats_breakdown[GLOBAL_ACC_R][RESERVATION_FAIL] = 107909500
	Total_core_cache_stats_breakdown[GLOBAL_ACC_R][SECTOR_MISS] = 996192
	Total_core_cache_stats_breakdown[GLOBAL_ACC_R][MSHR_HIT] = 6290990
	Total_core_cache_stats_breakdown[LOCAL_ACC_R][HIT] = 0
	Total_core_cache_stats_breakdown[LOCAL_ACC_R][HIT_RESERVED] = 0
	Total_core_cache_stats_breakdown[LOCAL_ACC_R][MISS] = 0
	Total_core_cache_stats_breakdown[LOCAL_ACC_R][RESERVATION_FAIL] = 0
	Total_core_cache_stats_breakdown[LOCAL_ACC_R][SECTOR_MISS] = 0
	Total_core_cache_stats_breakdown[LOCAL_ACC_R][MSHR_HIT] = 0
	Total_core_cache_stats_breakdown[CONST_ACC_R][HIT] = 0
	Total_core_cache_stats_breakdown[CONST_ACC_R][HIT_RESERVED] = 0
	Total_core_cache_stats_breakdown[CONST_ACC_R][MISS] = 0
	Total_core_cache_stats_breakdown[CONST_ACC_R][RESERVATION_FAIL] = 0
	Total_core_cache_stats_breakdown[CONST_ACC_R][SECTOR_MISS] = 0
	Total_core_cache_stats_breakdown[CONST_ACC_R][MSHR_HIT] = 0
	Total_core_cache_stats_breakdown[TEXTURE_ACC_R][HIT] = 0
	Total_core_cache_stats_breakdown[TEXTURE_ACC_R][HIT_RESERVED] = 0
	Total_core_cache_stats_breakdown[TEXTURE_ACC_R][MISS] = 0
	Total_core_cache_stats_breakdown[TEXTURE_ACC_R][RESERVATION_FAIL] = 0
	Total_core_cache_stats_breakdown[TEXTURE_ACC_R][SECTOR_MISS] = 0
	Total_core_cache_stats_breakdown[TEXTURE_ACC_R][MSHR_HIT] = 0
	Total_core_cache_stats_breakdown[GLOBAL_ACC_W][HIT] = 16777216
	Total_core_cache_stats_breakdown[GLOBAL_ACC_W][HIT_RESERVED] = 0
	Total_core_cache_stats_breakdown[GLOBAL_ACC_W][MISS] = 0
	Total_core_cache_stats_breakdown[GLOBAL_ACC_W][RESERVATION_FAIL] = 11781778
	Total_core_cache_stats_breakdown[GLOBAL_ACC_W][SECTOR_MISS] = 0
	Total_core_cache_stats_breakdown[GLOBAL_ACC_W][MSHR_HIT] = 0
	Total_core_cache_stats_breakdown[LOCAL_ACC_W][HIT] = 0
	Total_core_cache_stats_breakdown[LOCAL_ACC_W][HIT_RESERVED] = 0
	Total_core_cache_stats_breakdown[LOCAL_ACC_W][MISS] = 0
	Total_core_cache_stats_breakdown[LOCAL_ACC_W][RESERVATION_FAIL] = 0
	Total_core_cache_stats_breakdown[LOCAL_ACC_W][SECTOR_MISS] = 0
	Total_core_cache_stats_breakdown[LOCAL_ACC_W][MSHR_HIT] = 0
	Total_core_cache_stats_breakdown[L1_WRBK_ACC][HIT] = 0
	Total_core_cache_stats_breakdown[L1_WRBK_ACC][HIT_RESERVED] = 0
	Total_core_cache_stats_breakdown[L1_WRBK_ACC][MISS] = 0
	Total_core_cache_stats_breakdown[L1_WRBK_ACC][RESERVATION_FAIL] = 0
	Total_core_cache_stats_breakdown[L1_WRBK_ACC][SECTOR_MISS] = 0
	Total_core_cache_stats_breakdown[L1_WRBK_ACC][MSHR_HIT] = 0
	Total_core_cache_stats_breakdown[L2_WRBK_ACC][HIT] = 0
	Total_core_cache_stats_breakdown[L2_WRBK_ACC][HIT_RESERVED] = 0
	Total_core_cache_stats_breakdown[L2_WRBK_ACC][MISS] = 0
	Total_core_cache_stats_breakdown[L2_WRBK_ACC][RESERVATION_FAIL] = 0
	Total_core_cache_stats_breakdown[L2_WRBK_ACC][SECTOR_MISS] = 0
	Total_core_cache_stats_breakdown[L2_WRBK_ACC][MSHR_HIT] = 0
	Total_core_cache_stats_breakdown[INST_ACC_R][HIT] = 0
	Total_core_cache_stats_breakdown[INST_ACC_R][HIT_RESERVED] = 0
	Total_core_cache_stats_breakdown[INST_ACC_R][MISS] = 0
	Total_core_cache_stats_breakdown[INST_ACC_R][RESERVATION_FAIL] = 0
	Total_core_cache_stats_breakdown[INST_ACC_R][SECTOR_MISS] = 0
	Total_core_cache_stats_breakdown[INST_ACC_R][MSHR_HIT] = 0
	Total_core_cache_stats_breakdown[L1_WR_ALLOC_R][HIT] = 0
	Total_core_cache_stats_breakdown[L1_WR_ALLOC_R][HIT_RESERVED] = 0
	Total_core_cache_stats_breakdown[L1_WR_ALLOC_R][MISS] = 0
	Total_core_cache_stats_breakdown[L1_WR_ALLOC_R][RESERVATION_FAIL] = 0
	Total_core_cache_stats_breakdown[L1_WR_ALLOC_R][SECTOR_MISS] = 0
	Total_core_cache_stats_breakdown[L1_WR_ALLOC_R][MSHR_HIT] = 0
	Total_core_cache_stats_breakdown[L2_WR_ALLOC_R][HIT] = 0
	Total_core_cache_stats_breakdown[L2_WR_ALLOC_R][HIT_RESERVED] = 0
	Total_core_cache_stats_breakdown[L2_WR_ALLOC_R][MISS] = 0
	Total_core_cache_stats_breakdown[L2_WR_ALLOC_R][RESERVATION_FAIL] = 0
	Total_core_cache_stats_breakdown[L2_WR_ALLOC_R][SECTOR_MISS] = 0
	Total_core_cache_stats_breakdown[L2_WR_ALLOC_R][MSHR_HIT] = 0
	Total_core_cache_stats_breakdown[GLOBAL_ACC_R][TOTAL_ACCESS] = 21004288
	Total_core_cache_stats_breakdown[GLOBAL_ACC_W][TOTAL_ACCESS] = 16777216

Total_core_cache_fail_stats:
	Total_core_cache_fail_stats_breakdown[GLOBAL_ACC_R][MISS_QUEUE_FULL] = 8275443
	Total_core_cache_fail_stats_breakdown[GLOBAL_ACC_R][MSHR_MERGE_ENRTY_FAIL] = 99634057
	Total_core_cache_fail_stats_breakdown[GLOBAL_ACC_W][MISS_QUEUE_FULL] = 11781778
ctas_completed 1024, Shader 0 warp_id issue ditsribution:
warp_id:
0, 1, 2, 3, 4, 5, 6, 7, 8, 9, 10, 11, 12, 13, 14, 15, 16, 17, 18, 19, 20, 21, 22, 23, 24, 25, 26, 27, 28, 29, 30, 31, 32, 33, 34, 35, 36, 37, 38, 39, 40, 41, 42, 43, 44, 45, 46, 47, 48, 49, 50, 51, 52, 53, 54, 55, 56, 57, 58, 59, 60, 61, 62, 63, 
distro:
2589, 2589, 2589, 2589, 2589, 2589, 2589, 2589, 2589, 2589, 2589, 2589, 2589, 2589, 2589, 2589, 2589, 2589, 2589, 2589, 2589, 2589, 2589, 2589, 2589, 2589, 2589, 2589, 2589, 2589, 2589, 2589, 2589, 2589, 2589, 2589, 2589, 2589, 2589, 2589, 2589, 2589, 2589, 2589, 2589, 2589, 2589, 2589, 2589, 2589, 2589, 2589, 2589, 2589, 2589, 2589, 2589, 2589, 2589, 2589, 2589, 2589, 2589, 2589, 
gpgpu_n_tot_thrd_icount = 678690816
gpgpu_n_tot_w_icount = 21209088
gpgpu_n_stall_shd_mem = 30103910
gpgpu_n_mem_read_local = 0
gpgpu_n_mem_write_local = 0
gpgpu_n_mem_read_global = 1328256
gpgpu_n_mem_write_global = 16777216
gpgpu_n_mem_texture = 0
gpgpu_n_mem_const = 0
gpgpu_n_load_insn  = 268697600
gpgpu_n_store_insn = 134217728
gpgpu_n_shmem_insn = 0
gpgpu_n_sstarr_insn = 0
gpgpu_n_tex_insn = 0
gpgpu_n_const_mem_insn = 0
gpgpu_n_param_mem_insn = 786432
gpgpu_n_shmem_bkconflict = 0
gpgpu_n_l1cache_bkconflict = 30103910
gpgpu_n_intrawarp_mshr_merge = 0
gpgpu_n_cmem_portconflict = 0
gpgpu_stall_shd_mem[c_mem][resource_stall] = 0
gpgpu_stall_shd_mem[s_mem][bk_conf] = 0
gpgpu_stall_shd_mem[gl_mem][resource_stall] = 30103910
gpgpu_stall_shd_mem[gl_mem][coal_stall] = 0
gpgpu_stall_shd_mem[gl_mem][data_port_stall] = 0
gpu_reg_bank_conflict_stalls = 0
Warp Occupancy Distribution:
Stall:142776029	W0_Idle:504621	W0_Scoreboard:75799446	W1:0	W2:0	W3:0	W4:0	W5:0	W6:0	W7:0	W8:0	W9:0	W10:0	W11:0	W12:0	W13:0	W14:0	W15:0	W16:0	W17:0	W18:0	W19:0	W20:0	W21:0	W22:0	W23:0	W24:0	W25:0	W26:0	W27:0	W28:0	W29:0	W30:0	W31:0	W32:21209088
single_issue_nums: WS0:5302272	WS1:5302272	WS2:5302272	WS3:5302272	
dual_issue_nums: WS0:0	WS1:0	WS2:0	WS3:0	
traffic_breakdown_coretomem[GLOBAL_ACC_R] = 10626048 {8:1328256,}
traffic_breakdown_coretomem[GLOBAL_ACC_W] = 671088640 {40:16777216,}
traffic_breakdown_memtocore[GLOBAL_ACC_R] = 53130240 {40:1328256,}
traffic_breakdown_memtocore[GLOBAL_ACC_W] = 134217728 {8:16777216,}
maxmflatency = 8086 
max_icnt2mem_latency = 5214 
maxmrqlatency = 125 
max_icnt2sh_latency = 3875 
averagemflatency = 816 
avg_icnt2mem_latency = 530 
avg_mrq_latency = 5 
avg_icnt2sh_latency = 113 
mrq_lat_table:40357 	24017 	1997 	1837 	4401 	4414 	473 	0 	0 	0 	0 	0 	0 	0 	0 	0 	0 	0 	0 	0 	0 	0 	0 	0 	0 	0 	0 	0 	0 	0 	0 	0 	
dq_lat_table:0 	0 	0 	0 	0 	0 	0 	0 	0 	0 	0 	0 	0 	0 	0 	0 	0 	0 	0 	0 	0 	0 	0 	0 	0 	0 	0 	0 	0 	0 	0 	0 	
mf_lat_table:0 	0 	0 	0 	0 	0 	0 	842490 	3226156 	9843915 	3914173 	232845 	45893 	0 	0 	0 	0 	0 	0 	0 	0 	0 	0 	0 	0 	0 	0 	0 	0 	0 	0 	0 	
icnt2mem_lat_table:0 	0 	0 	0 	173910 	815374 	1139743 	1844593 	4853487 	8318550 	942984 	16745 	86 	0 	0 	0 	0 	0 	0 	0 	0 	0 	0 	0 	
icnt2sh_lat_table:0 	3403861 	2833927 	2788994 	2531719 	1933524 	1411317 	1106780 	750783 	1100717 	153189 	90661 	0 	0 	0 	0 	0 	0 	0 	0 	0 	0 	0 	0 	
mf_lat_pw_table:0 	0 	0 	0 	0 	0 	0 	31 	13 	1953 	66 	0 	0 	0 	0 	0 	0 	0 	0 	0 	0 	0 	0 	0 	0 	0 	0 	0 	0 	0 	0 	0 	
maximum concurrent accesses to same row:
dram[0]:        88        96        64        96        71        72        64        64        72        74        64        64        72        64        96        96 
dram[1]:        80        96        96        64        72        72        64        64        72        72        64        64        64        80        96        96 
dram[2]:        96        72        96        96        72        71        64        64        73        71        64        64        64        80        96        96 
dram[3]:        60        96        96        96        71        74        64        64        70        72        64        64        72        64        96        96 
dram[4]:        96        77        96        96        73        73        64        64        74        74        64        64        64        64        96        96 
dram[5]:        88        96        64        96        73        72        64        64        73        76        64        64        64        64        96        96 
dram[6]:        79        96        96        96        73        76        64        64        72        74        64        64        64        64        96        96 
dram[7]:        96        64        96        96        74        74        64        64        70        72        64        64        64        88        96        96 
dram[8]:        32        32        32        32        24        32        16        32        12        32        20        32        32        32        32        32 
dram[9]:        32        32        32        32        32        24        32        13        32        16        32        20        32        32        32        32 
dram[10]:        32        32        32        32        32        23        32        16        32        12        32        19        32        32        32        32 
dram[11]:        32        32        32        32        23        32        16        32        16        32        17        32        32        32        32        32 
dram[12]:        32        32        32        32        32        26        32        20        32        12        32        16        24        32        32        32 
dram[13]:        32        32        32        32        25        32        16        32        16        32        16        32        32        16        32        32 
dram[14]:        32        32        32        32        25        32        24        32        16        32        18        32        32        32        32        32 
dram[15]:        32        32        32        32        32        26        32        16        32        16        32        19        32        32        32        32 
dram[16]:        32        32        32        32        23        32        16        32        12        32        20        32        32        32        32        32 
dram[17]:        32        32        32        32        32        24        32        16        32        16        32        24        32        32        32        32 
dram[18]:        32        32        32        32        32        24        32        16        32        16        32        20        32        32        32        32 
dram[19]:        32        32        32        32        23        32        16        32        12        32        18        32        32        32        32        32 
dram[20]:        32        32        32        32        32        26        32        18        32        14        32        17        24        32        32        32 
dram[21]:        32        32        32        32        25        32        20        32        16        32        16        32        32        16        32        32 
dram[22]:        32        32        32        32        26        32        20        32        16        32        17        32        32        32        32        32 
dram[23]:        32        32        32        32        32        26        32        16        32        12        32        19        24        32        32        32 
maximum service time to same row:
dram[0]:    269198    269948    226853    229257    338764    342806    251923    256616    341035    345127    252507    256164    284855    239967    268765    273386 
dram[1]:    267662    272095    226412    229353    340547    340681    254386    254482    333655    342595    253238    255081    245797    285156    270624    271839 
dram[2]:    271866    265464    228696    230243    341827    342936    256296    258130    341933    341003    247665    256883    240058    288243    271934    270789 
dram[3]:    269475    274636    227796    231627    340634    344018    255495    258444    338212    343961    249885    253969    284880    240365    268109    274211 
dram[4]:    274991    275075    231695    232694    342744    348356    258278    262611    348052    348718    259755    264377    286268    290092    273566    273931 
dram[5]:    272449    277353    230271    234436    345878    345588    260068    260650    346428    347522    255134    269259    289773    286462    269762    277010 
dram[6]:    267336    276655    231258    233686    344437    348023    259880    262364    340542    346332    261882    259598    287709    242935    272762    274339 
dram[7]:    273531    276598    231753    233671    345593    347537    259492    261102    337191    350815    256899    264571    286375    289805    271995    275129 
dram[8]:    297384    239083    253708    197260    339338    300733    141735    258340     58874    114032    300610    251592    233910    178769    261346    255762 
dram[9]:    236914    299901    194606    256212    298277    341503    255859    139140    111379     60012    248924    303689    175666    236372    252791    264075 
dram[10]:    238192    298591    195976    255726    299413    343929    257616    142821    112843     58935    254238    302688    185160    241730    254052    262607 
dram[11]:    295904    242009    252996    199283    341574    302832    139640    260100     58939    119614    292483    256523    241382    185512    260185    256270 
dram[12]:    234619    291895    191174    249069    299468    349025    259894    152787    112254     59043    251709    297452    286393    303752    250254    258452 
dram[13]:    289869    237575    247252    193327    346550    302038    147922    262289     60023    114841    295222    253985    300653    286320    256161    253208 
dram[14]:    293276    238625    250215    194133    369201    312515    146785    264113     59048    113988    299438    250279    301512    306738    256142    251546 
dram[15]:    235433    295532    192085    253084    313445    369455    261321    149210    116855     59016    245928    304152    303878    304095    249007    258911 
dram[16]:    296264    238429    254544    198429    340063    301652    140977    257471     60010    112958    301459    253166    241351    179515    260431    254880 
dram[17]:    236154    298448    195257    257654    299212    342504    255098    138344    110773     59893    249897    312279    184999    237365    251865    263483 
dram[18]:    238251    298411    196785    256834    300469    344822    249968    141473    116588     58501    249821    303401    185362    241551    253161    262053 
dram[19]:    295280    240847    253870    200090    342176    303502    138981    258767     58920    119005    297395    257737    241388    185492    259370    255765 
dram[20]:    233964    291107    191454    249737    300329    350713    252146    152074    111589     59040    252305    298731    286353    304579    250310    257850 
dram[21]:    289227    236446    247550    194081    347451    302975    149510    261306     60012    113741    295810    255257    302088    286337    254981    252724 
dram[22]:    292402    237449    251137    195355    369044    306988    146040    263536     59066    113386    300484    251203    302308    307345    255225    250574 
dram[23]:    234787    295339    192990    254040    313426    349819    260784    148671    115661     58716    246398    305114    286464    304785    248075    258092 
average row accesses per activate:
dram[0]: 24.000000 28.266666 24.888889 28.000000 14.344828 19.809525 16.000000 12.210526 19.047619 19.368422 17.142857 15.000000 21.142857 21.142857 70.400002 50.285713 
dram[1]: 27.000000 24.941177 28.000000 20.363636 17.333334 15.407408 16.000000 13.647058 18.666666 17.090910 16.000000 16.000000 21.142857 24.666666 50.285713 70.400002 
dram[2]: 20.571428 17.666666 28.000000 28.000000 17.333334 16.320000 14.117647 16.571428 17.217392 16.000000 12.421053 16.000000 13.454545 24.666666 70.400002 70.400002 
dram[3]: 18.000000 24.941177 19.000000 23.200001 16.320000 18.909090 16.000000 16.285715 17.000000 15.666667 15.000000 14.750000 16.444445 18.500000 70.400002 70.400002 
dram[4]: 22.736841 21.200001 28.000000 20.727272 15.407408 13.419354 13.411765 16.000000 16.320000 18.285715 12.888889 15.466666 16.941177 16.444445 50.285713 70.400002 
dram[5]: 24.000000 22.315790 22.600000 22.799999 12.235294 13.419354 15.466666 13.176471 21.894737 20.210526 15.466666 15.466666 19.200001 14.400000 70.400002 50.285713 
dram[6]: 21.600000 22.315790 28.000000 20.727272 13.000000 14.344828 16.571428 15.466666 19.809525 16.695652 16.571428 15.466666 16.941177 19.200001 70.400002 50.285713 
dram[7]: 22.736841 21.200001 25.333334 25.333334 14.344828 12.606061 13.647058 17.230770 17.000000 16.000000 13.647058 16.571428 16.941177 24.000000 50.285713 70.400002 
dram[8]: 18.285715 21.333334 25.600000 18.285715  6.857143 19.200001  6.400000 24.000000  9.142858 21.333334  7.384615 24.000000 22.000000 13.333333 32.000000 24.000000 
dram[9]: 21.333334 14.222222 14.222222 25.600000 19.200001  5.647059 24.000000  5.647059 21.333334  9.142858 24.000000  7.384615 22.000000 20.000000 24.000000 32.000000 
dram[10]: 21.333334 14.222222 14.222222 25.600000 19.200001  7.384615 24.000000  6.400000 21.333334  9.142858 24.000000  6.400000 14.666667 20.000000 24.000000 32.000000 
dram[11]: 14.222222 21.333334 25.600000 18.285715  6.857143 19.200001  7.384615 24.000000  9.142858 21.333334  5.647059 24.000000 22.000000 20.000000 32.000000 24.000000 
dram[12]: 21.333334  9.846154 11.636364 25.600000 19.200001  7.384615 24.000000  6.400000 21.333334  9.142858 24.000000  5.647059 11.000000 20.000000 16.000000 32.000000 
dram[13]: 11.636364 21.333334 25.600000 11.636364  8.000000 19.200001  8.727273 24.000000  9.142858 21.333334  5.647059 24.000000 22.000000 10.000000 32.000000 16.000000 
dram[14]: 14.222222 21.333334 25.600000 11.636364  6.857143 19.200001  7.384615 24.000000  9.142858 21.333334  6.400000 24.000000 22.000000 20.000000 32.000000 16.000000 
dram[15]: 21.333334 11.636364 11.636364 25.600000 19.200001  7.384615 24.000000  7.384615 21.333334  9.142858 24.000000  7.384615 22.000000 20.000000 16.000000 32.000000 
dram[16]: 18.285715 21.333334 25.600000 14.222222  6.857143 19.200001  6.400000 24.000000  9.142858 21.333334  7.384615 24.000000 22.000000 13.333333 32.000000 24.000000 
dram[17]: 21.333334 14.222222 14.222222 25.600000 19.200001  6.000000 24.000000  5.647059 21.333334  9.142858 24.000000  8.727273 22.000000 20.000000 16.000000 32.000000 
dram[18]: 21.333334 14.222222 14.222222 25.600000 19.200001  6.857143 16.000000  7.384615 21.333334  9.142858 24.000000  7.384615 14.666667 20.000000 24.000000 32.000000 
dram[19]: 14.222222 21.333334 25.600000 14.222222  6.857143 19.200001  6.400000 24.000000  9.142858 21.333334  6.400000 24.000000 22.000000 13.333333 32.000000 24.000000 
dram[20]: 21.333334  9.846154 11.636364 25.600000 19.200001  8.000000 16.000000  7.384615 21.333334  9.142858 24.000000  7.384615  9.777778 20.000000 16.000000 32.000000 
dram[21]: 11.636364 21.333334 25.600000 11.636364  8.000000 19.200001  8.727273 24.000000  9.142858 21.333334  5.647059 24.000000 22.000000 10.000000 32.000000 16.000000 
dram[22]: 14.222222 21.333334 25.600000  9.846154  8.000000 19.200001  6.400000 24.000000  9.142858 21.333334  6.400000 24.000000 22.000000 20.000000 32.000000 16.000000 
dram[23]: 21.333334 11.636364 11.636364 25.600000 19.200001  8.000000 24.000000  7.384615 21.333334  9.142858 24.000000  7.384615  9.777778 20.000000 16.000000 32.000000 
average row locality = 77496/4564 = 16.979843
number of total memory accesses made:
dram[0]:         0         0         0         0         0         0         0         0         0         0         0         0         0         0         0         0 
dram[1]:         0         0         0         0         0         0         0         0         0         0         0         0         0         0         0         0 
dram[2]:         0         0         0         0         0         0         0         0         0         0         0         0         0         0         0         0 
dram[3]:         0         0         0         0         0         0         0         0         0         0         0         0         0         0         0         0 
dram[4]:         0         0         0         0         0         0         0         0         0         0         0         0         0         0         0         0 
dram[5]:         0         0         0         0         0         0         0         0         0         0         0         0         0         0         0         0 
dram[6]:         0         0         0         0         0         0         0         0         0         0         0         0         0         0         0         0 
dram[7]:         0         0         0         0         0         0         0         0         0         0         0         0         0         0         0         0 
dram[8]:         0         0         0         0         0         0         0         0         0         0         0         0         0         0         0         0 
dram[9]:         0         0         0         0         0         0         0         0         0         0         0         0         0         0         0         0 
dram[10]:         0         0         0         0         0         0         0         0         0         0         0         0         0         0         0         0 
dram[11]:         0         0         0         0         0         0         0         0         0         0         0         0         0         0         0         0 
dram[12]:         0         0         0         0         0         0         0         0         0         0         0         0         0         0         0         0 
dram[13]:         0         0         0         0         0         0         0         0         0         0         0         0         0         0         0         0 
dram[14]:         0         0         0         0         0         0         0         0         0         0         0         0         0         0         0         0 
dram[15]:         0         0         0         0         0         0         0         0         0         0         0         0         0         0         0         0 
dram[16]:         0         0         0         0         0         0         0         0         0         0         0         0         0         0         0         0 
dram[17]:         0         0         0         0         0         0         0         0         0         0         0         0         0         0         0         0 
dram[18]:         0         0         0         0         0         0         0         0         0         0         0         0         0         0         0         0 
dram[19]:         0         0         0         0         0         0         0         0         0         0         0         0         0         0         0         0 
dram[20]:         0         0         0         0         0         0         0         0         0         0         0         0         0         0         0         0 
dram[21]:         0         0         0         0         0         0         0         0         0         0         0         0         0         0         0         0 
dram[22]:         0         0         0         0         0         0         0         0         0         0         0         0         0         0         0         0 
dram[23]:         0         0         0         0         0         0         0         0         0         0         0         0         0         0         0         0 
total accesses: 0
min_bank_accesses = 0!
min_chip_accesses = 0!
number of total read accesses:
dram[0]:       352       336       352       352       488       496       576       576       576       576       424       392       272       272       256       256 
dram[1]:       352       336       352       352       488       496       576       576       576       576       416       400       272       272       256       256 
dram[2]:       352       336       352       352       488       496       576       568       568       576       420       408       272       272       256       256 
dram[3]:       360       344       352       352       488       496       568       576       576       568       432       400       272       272       256       256 
dram[4]:       344       344       352       352       472       480       576       576       560       560       432       408       272       264       256       256 
dram[5]:       356       344       352       352       472       480       576       576       560       560       440       408       264       264       256       256 
dram[6]:       352       360       352       352       472       480       576       576       560       560       440       408       264       264       256       256 
dram[7]:       360       344       352       352       472       480       576       576       560       560       432       408       264       264       256       256 
dram[8]:        96        96        96        96       128       128       128       128       128       128        88        80        64        64        64        64 
dram[9]:        96        96        96        96       128       128       128       128       128       128        88        80        64        64        64        64 
dram[10]:        96        96        96        96       128       128       128       128       128       128        88        80        64        64        64        64 
dram[11]:        96        96        96        96       128       128       128       128       128       128        88        80        64        64        64        64 
dram[12]:        96        96        96        96       128       128       128       128       128       128        88        80        64        64        64        64 
dram[13]:        96        96        96        96       128       128       128       128       128       128        88        80        64        64        64        64 
dram[14]:        96        96        96        96       128       128       128       128       128       128        88        80        64        64        64        64 
dram[15]:        96        96        96        96       128       128       128       128       128       128        88        80        64        64        64        64 
dram[16]:        96        96        96        96       128       128       128       128       128       128        88        80        64        64        64        64 
dram[17]:        96        96        96        96       128       128       128       128       128       128        88        80        64        64        64        64 
dram[18]:        96        96        96        96       128       128       128       128       128       128        88        80        64        64        64        64 
dram[19]:        96        96        96        96       128       128       128       128       128       128        88        80        64        64        64        64 
dram[20]:        96        96        96        96       128       128       128       128       128       128        88        80        64        64        64        64 
dram[21]:        96        96        96        96       128       128       128       128       128       128        88        80        64        64        64        64 
dram[22]:        96        96        96        96       128       128       128       128       128       128        88        80        64        64        64        64 
dram[23]:        96        96        96        96       128       128       128       128       128       128        88        80        64        64        64        64 
total dram reads = 77496
bank skew: 576/64 = 9.00
chip skew: 6568/1576 = 4.17
number of total write accesses:
dram[0]:         0         0         0         0        20        32        56        52        28        16        48        52         0         0         4         0 
dram[1]:         0         0         0         0        16        40        52        56        36        12        56        52         0         0         4         4 
dram[2]:         0         0         0         0        24        36        56        52        24        16        48        52         0         0         8         0 
dram[3]:         0         0         0         0        16        36        60        48        32         8        56        44         0         0         0         8 
dram[4]:         0         0         0         0         4         0        48        52        48        36        48        60         0         0         0         0 
dram[5]:         0         0         0         0         4         8        44        56        48        32        48        60         0         0         8         0 
dram[6]:         0         0         0         0         8         4        36        64        48        32        48        60         0         0         0         0 
dram[7]:         0         0         0         0         4         4        56        44        48        36        48        60         0         0         0         0 
dram[8]:         0         0         0         0         0         0         0         0         0         0         0         0         0         0         0         0 
dram[9]:         0         0         0         0         0         0         0         0         0         0         0         0         0         0         0         0 
dram[10]:         0         0         0         0         0         0         0         0         0         0         0         0         0         0         0         0 
dram[11]:         0         0         0         0         0         0         0         0         0         0         0         0         0         0         0         0 
dram[12]:         0         0         0         0         0         0         0         0         0         0         0         0         0         0         0         0 
dram[13]:         0         0         0         0         0         0         0         0         0         0         0         0         0         0         0         0 
dram[14]:         0         0         0         0         0         0         0         0         0         0         0         0         0         0         0         0 
dram[15]:         0         0         0         0         0         0         0         0         0         0         0         0         0         0         0         0 
dram[16]:         0         0         0         0         0         0         0         0         0         0         0         0         0         0         0         0 
dram[17]:         0         0         0         0         0         0         0         0         0         0         0         0         0         0         0         0 
dram[18]:         0         0         0         0         0         0         0         0         0         0         0         0         0         0         0         0 
dram[19]:         0         0         0         0         0         0         0         0         0         0         0         0         0         0         0         0 
dram[20]:         0         0         0         0         0         0         0         0         0         0         0         0         0         0         0         0 
dram[21]:         0         0         0         0         0         0         0         0         0         0         0         0         0         0         0         0 
dram[22]:         0         0         0         0         0         0         0         0         0         0         0         0         0         0         0         0 
dram[23]:         0         0         0         0         0         0         0         0         0         0         0         0         0         0         0         0 
total dram writes = 2464
min_bank_accesses = 0!
min_chip_accesses = 0!
average mf latency per bank:
dram[0]:     136830    142031    337086    327848    149265    143536    157896    158532    150171    151229    118143    123448    177790    171472    173254    173243
dram[1]:     135724    139678    258893    257945    150043    152083    158366    161368    146938    152057    118388    120003    172154    168348    171475    169257
dram[2]:     131375    137241    202782    203955    153077    160847    165961    172756    160300    159983    126703    125839    165490    163454    162931    166584
dram[3]:     129202    134313    209989    202069    181425    165147    185214    184805    166164    171980    124046    135511    167589    164097    169412    163837
dram[4]:     122561    121247     93328     92852    159781    170376    167403    159584    156611    154628    111548    116598    156539    165090    170027    170063
dram[5]:     119359    122078     93661     92000    177046    184259    178614    177113    159943    155057    108225    112231    162888    164630    165973    171595
dram[6]:     123209    120000     98439     95871    191841    198580    196472    185183    173031    167743    110102    119530    167990    170522    175709    176287
dram[7]:     116577    120740     96609     96009    156243    166996    166155    162113    150442    145787    108269    111416    161112    164754    169621    169845
dram[8]:     155934    157633    283002    279173    229062    252463    207199    197807    180599    181947    356430    372122    421445    412210    215135    213624
dram[9]:     155452    156003    257781    249849    229715    264447    200362    203422    175595    194532    355941    376859    420211    412580    216021    210400
dram[10]:     156061    156922    255588    248146    229060    271690    199116    202781    179700    187605    364279    376703    420141    412946    212085    211103
dram[11]:     156682    156329    258603    248019    235945    252070    206430    196158    185483    182807    364267    380276    421576    409902    213902    208768
dram[12]:     143796    141253    208763    208175    227695    259269    209216    208875    178572    170230    323270    350733    399509    394961    215356    223035
dram[13]:     143652    139087    210690    206029    232345    253739    208548    208069    184521    171330    330935    344451    401804    394886    215594    223279
dram[14]:     144614    140027    209703    203411    228529    243266    208074    208129    178099    170592    329678    351863    400629    393964    216589    222845
dram[15]:     143911    140546    207971    203251    223709    260689    208837    206016    177520    171520    324398    349853    398599    394837    213888    220472
dram[16]:     287962    284848    134945    116655     93085     96604    379771    373887    341205    339083    218867    221434    232688    228648    399925    399419
dram[17]:     286532    286562    134752    117546     93666    100908    367602    378928    341004    347931    214529    226278    229734    231026    398654    402096
dram[18]:     288429    287774    134309    117754     93705    102111    373310    385900    344315    344183    231804    225117    229790    229295    400066    400197
dram[19]:     287212    285388    134771    117042     95531     98790    384929    378363    352693    338266    225945    228745    230445    229116    398213    395711
dram[20]:     261097    264511    140091    132742     94133     91276    394146    384923    361688    331841    204298    204960    220895    213014    412699    422118
dram[21]:     263340    261558    139687    132219     90482     92869    386759    389645    369869    332361    208622    200762    222103    214060    413891    419616
dram[22]:     261516    264354    139602    130796     88919     87861    394911    397843    363359    330662    209863    208646    220982    214271    413052    421797
dram[23]:     263498    263734    139402    131110     90618     92187    399310    390578    363086    330368    213078    205998    224824    212267    414001    419978
maximum mf latency per bank:
dram[0]:       8037      8086      7653      7738      4150      4124      3413      2771      3523      3592      5158      2955      6715      6940      7246      7673
dram[1]:       6550      6240      6567      6329      3549      2946      2924      2879      3734      3474      2969      3734      5185      5878      6147      6115
dram[2]:       5696      5395      5505      5533      4210      4110      3088      3526      4386      3512      5344      3124      5180      5140      5170      5260
dram[3]:       5424      5696      5724      5545      4168      5682      3468      2945      3414      3761      3463      4058      5164      5239      5334      5997
dram[4]:       2270      2440      2951      3894      3687      4797      2607      2984      3738      4433      4854      3789      2153      2180      4383      2856
dram[5]:       2132      2244      2916      2944      4071      4050      4062      4051      4009      4007      4019      4713      2362      2415      2430      2373
[...]
Bank_Level_Parallism_Ready = 1.721945
write_to_read_ratio_blp_rw_average = 0.035435
GrpLevelPara = 1.237882 

BW Util details:
bwutil = 0.002314 
total_CMD = 2248525 
util_bw = 5204 
Wasted_Col = 3977 
Wasted_Row = 2782 
Idle = 2236562 

BW Util Bottlenecks: 
RCDc_limit = 3094 
RCDWRc_limit = 37 
WTRc_limit = 31 
RTWc_limit = 46 
CCDLc_limit = 945 
rwq = 0 
CCDLc_limit_alone = 944 
WTRc_limit_alone = 30 
RTWc_limit_alone = 46 

Commands details: 
total_CMD = 2248525 
n_nop = 2242795 
Read = 4888 
Write = 0 
L2_Alloc = 0 
L2_WB = 316 
n_act = 301 
n_pre = 285 
n_ref = 0 
n_req = 5056 
total_req = 5204 

Dual Bus Interface Util: 
issued_total_row = 586 
issued_total_col = 5204 
Row_Bus_Util =  0.000261 
CoL_Bus_Util = 0.002314 
Either_Row_CoL_Bus_Util = 0.002548 
Issued_on_Two_Bus_Simul_Util = 0.000027 
issued_two_Eff = 0.010471 
queue_avg = 0.017260 


dram_util_bins: 0 0 0 0 0 0 0 0 0 0
dram_eff_bins: 0 0 0 0 0 0 0 0 0 0
mrqq: max=64 avg=0.0172602
Memory Partition 20: 
Cache L2_bank_040:
MSHR contents

Cache L2_bank_041:
MSHR contents

In Dram Latency Queue (total = 0): 
DRAM[20]: 16 bks, busW=16 BL=2 CL=12, tRRD=3 tCCD=1, tRCD=12 tRAS=28 tRP=12 tRC=40
n_cmd=2248525 n_nop=2242756 n_act=321 n_pre=305 n_ref_event=0 n_req=5058 n_rd=4888 n_rd_L2_A=0 n_write=0 n_wr_bk=316 bw_util=0.002314
n_activity=47913 dram_eff=0.1086
bk0: 320a 2248068i bk1: 320a 2247604i bk2: 320a 2247547i bk3: 320a 2247661i bk4: 256a 2247623i bk5: 256a 2247571i bk6: 272a 2247819i bk7: 288a 2247405i bk8: 320a 2247783i bk9: 320a 2247431i bk10: 288a 2247809i bk11: 288a 2247565i bk12: 344a 2247427i bk13: 336a 2247599i bk14: 320a 2247702i bk15: 320a 2247583i 

------------------------------------------------------------------------

Row_Buffer_Locality = 0.935373
Row_Buffer_Locality_read = 0.936989
Row_Buffer_Locality_write = 0.835443
Bank_Level_Parallism = 1.531762
Bank_Level_Parallism_Col = 1.614010
Bank_Level_Parallism_Ready = 1.627402
write_to_read_ratio_blp_rw_average = 0.031452
GrpLevelPara = 1.222649 

BW Util details:
bwutil = 0.002314 
total_CMD = 2248525 
util_bw = 5204 
Wasted_Col = 4188 
Wasted_Row = 3123 
Idle = 2236010 

BW Util Bottlenecks: 
RCDc_limit = 3328 
RCDWRc_limit = 21 
WTRc_limit = 35 
RTWc_limit = 0 
CCDLc_limit = 949 
rwq = 0 
CCDLc_limit_alone = 948 
WTRc_limit_alone = 34 
RTWc_limit_alone = 0 

Commands details: 
total_CMD = 2248525 
n_nop = 2242756 
Read = 4888 
Write = 0 
L2_Alloc = 0 
L2_WB = 316 
n_act = 321 
n_pre = 305 
n_ref = 0 
n_req = 5058 
total_req = 5204 

Dual Bus Interface Util: 
issued_total_row = 626 
issued_total_col = 5204 
Row_Bus_Util =  0.000278 
CoL_Bus_Util = 0.002314 
Either_Row_CoL_Bus_Util = 0.002566 
Issued_on_Two_Bus_Simul_Util = 0.000027 
issued_two_Eff = 0.010574 
queue_avg = 0.018405 


dram_util_bins: 0 0 0 0 0 0 0 0 0 0
dram_eff_bins: 0 0 0 0 0 0 0 0 0 0
mrqq: max=64 avg=0.0184054
Memory Partition 21: 
Cache L2_bank_042:
MSHR contents

Cache L2_bank_043:
MSHR contents

In Dram Latency Queue (total = 0): 
DRAM[21]: 16 bks, busW=16 BL=2 CL=12, tRRD=3 tCCD=1, tRCD=12 tRAS=28 tRP=12 tRC=40
n_cmd=2248525 n_nop=2242760 n_act=315 n_pre=299 n_ref_event=0 n_req=5062 n_rd=4892 n_rd_L2_A=0 n_write=0 n_wr_bk=316 bw_util=0.002316
n_activity=47391 dram_eff=0.1099
bk0: 320a 2247678i bk1: 320a 2248024i bk2: 320a 2247837i bk3: 320a 2247550i bk4: 256a 2247618i bk5: 256a 2247552i bk6: 276a 2247474i bk7: 288a 2247924i bk8: 320a 2247518i bk9: 320a 2247713i bk10: 288a 2247501i bk11: 288a 2247859i bk12: 344a 2247722i bk13: 336a 2247455i bk14: 320a 2247532i bk15: 320a 2247675i 

------------------------------------------------------------------------

Row_Buffer_Locality = 0.936834
Row_Buffer_Locality_read = 0.938675
Row_Buffer_Locality_write = 0.822785
Bank_Level_Parallism = 1.540403
Bank_Level_Parallism_Col = 1.597591
Bank_Level_Parallism_Ready = 1.647273
write_to_read_ratio_blp_rw_average = 0.035005
GrpLevelPara = 1.229996 

BW Util details:
bwutil = 0.002316 
total_CMD = 2248525 
util_bw = 5208 
Wasted_Col = 4100 
Wasted_Row = 2857 
Idle = 2236360 

BW Util Bottlenecks: 
RCDc_limit = 3260 
RCDWRc_limit = 22 
WTRc_limit = 18 
RTWc_limit = 1 
CCDLc_limit = 966 
rwq = 0 
CCDLc_limit_alone = 966 
WTRc_limit_alone = 18 
RTWc_limit_alone = 1 

Commands details: 
total_CMD = 2248525 
n_nop = 2242760 
Read = 4892 
Write = 0 
L2_Alloc = 0 
L2_WB = 316 
n_act = 315 
n_pre = 299 
n_ref = 0 
n_req = 5062 
total_req = 5208 

Dual Bus Interface Util: 
issued_total_row = 614 
issued_total_col = 5208 
Row_Bus_Util =  0.000273 
CoL_Bus_Util = 0.002316 
Either_Row_CoL_Bus_Util = 0.002564 
Issued_on_Two_Bus_Simul_Util = 0.000025 
issued_two_Eff = 0.009887 
queue_avg = 0.017517 


dram_util_bins: 0 0 0 0 0 0 0 0 0 0
dram_eff_bins: 0 0 0 0 0 0 0 0 0 0
mrqq: max=64 avg=0.0175173
Memory Partition 22: 
Cache L2_bank_044:
MSHR contents

Cache L2_bank_045:
MSHR contents

In Dram Latency Queue (total = 0): 
DRAM[22]: 16 bks, busW=16 BL=2 CL=12, tRRD=3 tCCD=1, tRCD=12 tRAS=28 tRP=12 tRC=40
n_cmd=2248525 n_nop=2242757 n_act=314 n_pre=298 n_ref_event=0 n_req=5057 n_rd=4888 n_rd_L2_A=0 n_write=0 n_wr_bk=320 bw_util=0.002316
n_activity=47399 dram_eff=0.1099
bk0: 320a 2247727i bk1: 320a 2248057i bk2: 320a 2247626i bk3: 320a 2247563i bk4: 256a 2247565i bk5: 256a 2247444i bk6: 280a 2247342i bk7: 284a 2247922i bk8: 320a 2247487i bk9: 320a 2247811i bk10: 288a 2247555i bk11: 288a 2247819i bk12: 344a 2247636i bk13: 332a 2247688i bk14: 320a 2247662i bk15: 320a 2247717i 

------------------------------------------------------------------------

Row_Buffer_Locality = 0.936795
Row_Buffer_Locality_read = 0.938625
Row_Buffer_Locality_write = 0.825000
Bank_Level_Parallism = 1.532494
Bank_Level_Parallism_Col = 1.598052
Bank_Level_Parallism_Ready = 1.642473
write_to_read_ratio_blp_rw_average = 0.034974
GrpLevelPara = 1.220562 

BW Util details:
bwutil = 0.002316 
total_CMD = 2248525 
util_bw = 5208 
Wasted_Col = 4083 
Wasted_Row = 2942 
Idle = 2236292 

BW Util Bottlenecks: 
RCDc_limit = 3272 
RCDWRc_limit = 22 
WTRc_limit = 30 
RTWc_limit = 0 
CCDLc_limit = 988 
rwq = 0 
CCDLc_limit_alone = 987 
WTRc_limit_alone = 29 
RTWc_limit_alone = 0 

Commands details: 
total_CMD = 2248525 
n_nop = 2242757 
Read = 4888 
Write = 0 
L2_Alloc = 0 
L2_WB = 320 
n_act = 314 
n_pre = 298 
n_ref = 0 
n_req = 5057 
total_req = 5208 

Dual Bus Interface Util: 
issued_total_row = 612 
issued_total_col = 5208 
Row_Bus_Util =  0.000272 
CoL_Bus_Util = 0.002316 
Either_Row_CoL_Bus_Util = 0.002565 
Issued_on_Two_Bus_Simul_Util = 0.000023 
issued_two_Eff = 0.009015 
queue_avg = 0.017362 


dram_util_bins: 0 0 0 0 0 0 0 0 0 0
dram_eff_bins: 0 0 0 0 0 0 0 0 0 0
mrqq: max=64 avg=0.0173625
Memory Partition 23: 
Cache L2_bank_046:
MSHR contents

Cache L2_bank_047:
MSHR contents

In Dram Latency Queue (total = 0): 
DRAM[23]: 16 bks, busW=16 BL=2 CL=12, tRRD=3 tCCD=1, tRCD=12 tRAS=28 tRP=12 tRC=40
n_cmd=2248525 n_nop=2242768 n_act=324 n_pre=308 n_ref_event=0 n_req=5041 n_rd=4872 n_rd_L2_A=0 n_write=0 n_wr_bk=316 bw_util=0.002307
n_activity=47927 dram_eff=0.1082
bk0: 320a 2248059i bk1: 320a 2247693i bk2: 320a 2247556i bk3: 320a 2247639i bk4: 256a 2247399i bk5: 256a 2247538i bk6: 268a 2247935i bk7: 280a 2247365i bk8: 320a 2247719i bk9: 320a 2247463i bk10: 288a 2247864i bk11: 288a 2247527i bk12: 340a 2247455i bk13: 336a 2247730i bk14: 320a 2247734i bk15: 320a 2247660i 

------------------------------------------------------------------------

Row_Buffer_Locality = 0.934559
Row_Buffer_Locality_read = 0.936371
Row_Buffer_Locality_write = 0.822785
Bank_Level_Parallism = 1.525471
Bank_Level_Parallism_Col = 1.590682
Bank_Level_Parallism_Ready = 1.652660
write_to_read_ratio_blp_rw_average = 0.034260
GrpLevelPara = 1.205582 

BW Util details:
bwutil = 0.002307 
total_CMD = 2248525 
util_bw = 5188 
Wasted_Col = 4287 
Wasted_Row = 2990 
Idle = 2236060 

BW Util Bottlenecks: 
RCDc_limit = 3408 
RCDWRc_limit = 51 
WTRc_limit = 54 
RTWc_limit = 78 
CCDLc_limit = 1002 
rwq = 0 
CCDLc_limit_alone = 997 
WTRc_limit_alone = 51 
RTWc_limit_alone = 76 

Commands details: 
total_CMD = 2248525 
n_nop = 2242768 
Read = 4872 
Write = 0 
L2_Alloc = 0 
L2_WB = 316 
n_act = 324 
n_pre = 308 
n_ref = 0 
n_req = 5041 
total_req = 5188 

Dual Bus Interface Util: 
issued_total_row = 632 
issued_total_col = 5188 
Row_Bus_Util =  0.000281 
CoL_Bus_Util = 0.002307 
Either_Row_CoL_Bus_Util = 0.002560 
Issued_on_Two_Bus_Simul_Util = 0.000028 
issued_two_Eff = 0.010943 
queue_avg = 0.017424 


dram_util_bins: 0 0 0 0 0 0 0 0 0 0
dram_eff_bins: 0 0 0 0 0 0 0 0 0 0
mrqq: max=64 avg=0.0174243

========= L2 cache stats =========
L2_cache_bank[0]: Access = 1553012, Miss = 9180, Miss_rate = 0.006, Pending_hits = 1073, Reservation_fails = 1637
L2_cache_bank[1]: Access = 1840708, Miss = 10272, Miss_rate = 0.006, Pending_hits = 1128, Reservation_fails = 1636
L2_cache_bank[2]: Access = 1553016, Miss = 9200, Miss_rate = 0.006, Pending_hits = 980, Reservation_fails = 1585
L2_cache_bank[3]: Access = 1840716, Miss = 10276, Miss_rate = 0.006, Pending_hits = 1124, Reservation_fails = 2456
L2_cache_bank[4]: Access = 1553036, Miss = 9180, Miss_rate = 0.006, Pending_hits = 1068, Reservation_fails = 1801
L2_cache_bank[5]: Access = 1840664, Miss = 10292, Miss_rate = 0.006, Pending_hits = 1154, Reservation_fails = 2498
L2_cache_bank[6]: Access = 1552988, Miss = 9192, Miss_rate = 0.006, Pending_hits = 1022, Reservation_fails = 1768
L2_cache_bank[7]: Access = 1840700, Miss = 10264, Miss_rate = 0.006, Pending_hits = 1152, Reservation_fails = 2139
L2_cache_bank[8]: Access = 1552944, Miss = 9176, Miss_rate = 0.006, Pending_hits = 1046, Reservation_fails = 1224
L2_cache_bank[9]: Access = 1840768, Miss = 10216, Miss_rate = 0.006, Pending_hits = 1098, Reservation_fails = 1748
L2_cache_bank[10]: Access = 1552932, Miss = 9184, Miss_rate = 0.006, Pending_hits = 1075, Reservation_fails = 1596
L2_cache_bank[11]: Access = 1840804, Miss = 10204, Miss_rate = 0.006, Pending_hits = 1270, Reservation_fails = 1758
L2_cache_bank[12]: Access = 1552928, Miss = 9188, Miss_rate = 0.006, Pending_hits = 1127, Reservation_fails = 1968
L2_cache_bank[13]: Access = 1840764, Miss = 10236, Miss_rate = 0.006, Pending_hits = 1230, Reservation_fails = 1880
L2_cache_bank[14]: Access = 1552932, Miss = 9196, Miss_rate = 0.006, Pending_hits = 1162, Reservation_fails = 1805
L2_cache_bank[15]: Access = 1840824, Miss = 10240, Miss_rate = 0.006, Pending_hits = 1286, Reservation_fails = 2441
L2_cache_bank[16]: Access = 781768, Miss = 2232, Miss_rate = 0.003, Pending_hits = 120, Reservation_fails = 576
L2_cache_bank[17]: Access = 904056, Miss = 2660, Miss_rate = 0.003, Pending_hits = 197, Reservation_fails = 905
L2_cache_bank[18]: Access = 781764, Miss = 2220, Miss_rate = 0.003, Pending_hits = 115, Reservation_fails = 622
L2_cache_bank[19]: Access = 904064, Miss = 2652, Miss_rate = 0.003, Pending_hits = 255, Reservation_fails = 754
L2_cache_bank[20]: Access = 781780, Miss = 2220, Miss_rate = 0.003, Pending_hits = 113, Reservation_fails = 786
L2_cache_bank[21]: Access = 904040, Miss = 2652, Miss_rate = 0.003, Pending_hits = 230, Reservation_fails = 906
L2_cache_bank[22]: Access = 781756, Miss = 2212, Miss_rate = 0.003, Pending_hits = 137, Reservation_fails = 743
L2_cache_bank[23]: Access = 904084, Miss = 2652, Miss_rate = 0.003, Pending_hits = 204, Reservation_fails = 858
L2_cache_bank[24]: Access = 781692, Miss = 2228, Miss_rate = 0.003, Pending_hits = 113, Reservation_fails = 544
L2_cache_bank[25]: Access = 904016, Miss = 2664, Miss_rate = 0.003, Pending_hits = 245, Reservation_fails = 1009
L2_cache_bank[26]: Access = 781684, Miss = 2224, Miss_rate = 0.003, Pending_hits = 103, Reservation_fails = 745
L2_cache_bank[27]: Access = 904020, Miss = 2664, Miss_rate = 0.003, Pending_hits = 246, Reservation_fails = 880
L2_cache_bank[28]: Access = 781692, Miss = 2228, Miss_rate = 0.003, Pending_hits = 97, Reservation_fails = 625
L2_cache_bank[29]: Access = 904012, Miss = 2660, Miss_rate = 0.003, Pending_hits = 165, Reservation_fails = 715
L2_cache_bank[30]: Access = 781688, Miss = 2208, Miss_rate = 0.003, Pending_hits = 94, Reservation_fails = 836
L2_cache_bank[31]: Access = 904028, Miss = 2664, Miss_rate = 0.003, Pending_hits = 242, Reservation_fails = 1059
L2_cache_bank[32]: Access = 795872, Miss = 2212, Miss_rate = 0.003, Pending_hits = 126, Reservation_fails = 661
L2_cache_bank[33]: Access = 912640, Miss = 2660, Miss_rate = 0.003, Pending_hits = 201, Reservation_fails = 918
L2_cache_bank[34]: Access = 795872, Miss = 2224, Miss_rate = 0.003, Pending_hits = 113, Reservation_fails = 677
L2_cache_bank[35]: Access = 912672, Miss = 2660, Miss_rate = 0.003, Pending_hits = 192, Reservation_fails = 545
L2_cache_bank[36]: Access = 795880, Miss = 2220, Miss_rate = 0.003, Pending_hits = 149, Reservation_fails = 661
L2_cache_bank[37]: Access = 912632, Miss = 2656, Miss_rate = 0.003, Pending_hits = 170, Reservation_fails = 895
L2_cache_bank[38]: Access = 795864, Miss = 2232, Miss_rate = 0.003, Pending_hits = 115, Reservation_fails = 683
L2_cache_bank[39]: Access = 912672, Miss = 2656, Miss_rate = 0.003, Pending_hits = 222, Reservation_fails = 851
L2_cache_bank[40]: Access = 795804, Miss = 2224, Miss_rate = 0.003, Pending_hits = 110, Reservation_fails = 333
L2_cache_bank[41]: Access = 912656, Miss = 2664, Miss_rate = 0.003, Pending_hits = 238, Reservation_fails = 752
L2_cache_bank[42]: Access = 795800, Miss = 2228, Miss_rate = 0.003, Pending_hits = 103, Reservation_fails = 636
L2_cache_bank[43]: Access = 912680, Miss = 2664, Miss_rate = 0.003, Pending_hits = 235, Reservation_fails = 876
L2_cache_bank[44]: Access = 795812, Miss = 2228, Miss_rate = 0.003, Pending_hits = 106, Reservation_fails = 872
L2_cache_bank[45]: Access = 912676, Miss = 2660, Miss_rate = 0.003, Pending_hits = 209, Reservation_fails = 815
L2_cache_bank[46]: Access = 795812, Miss = 2212, Miss_rate = 0.003, Pending_hits = 104, Reservation_fails = 769
L2_cache_bank[47]: Access = 912676, Miss = 2660, Miss_rate = 0.003, Pending_hits = 206, Reservation_fails = 995
L2_total_cache_accesses = 54303900
L2_total_cache_misses = 233596
L2_total_cache_miss_rate = 0.0043
L2_total_cache_pending_hits = 23270
L2_total_cache_reservation_fails = 54442
L2_total_cache_breakdown:
	L2_cache_stats_breakdown[GLOBAL_ACC_R][HIT] = 1231596
	L2_cache_stats_breakdown[GLOBAL_ACC_R][HIT_RESERVED] = 7776
	L2_cache_stats_breakdown[GLOBAL_ACC_R][MISS] = 17630
	L2_cache_stats_breakdown[GLOBAL_ACC_R][RESERVATION_FAIL] = 21620
	L2_cache_stats_breakdown[GLOBAL_ACC_R][SECTOR_MISS] = 52890
	L2_cache_stats_breakdown[GLOBAL_ACC_R][MSHR_HIT] = 7776
	L2_cache_stats_breakdown[LOCAL_ACC_R][HIT] = 0
	L2_cache_stats_breakdown[LOCAL_ACC_R][HIT_RESERVED] = 0
	L2_cache_stats_breakdown[LOCAL_ACC_R][MISS] = 0
	L2_cache_stats_breakdown[LOCAL_ACC_R][RESERVATION_FAIL] = 0
	L2_cache_stats_breakdown[LOCAL_ACC_R][SECTOR_MISS] = 0
	L2_cache_stats_breakdown[LOCAL_ACC_R][MSHR_HIT] = 0
	L2_cache_stats_breakdown[CONST_ACC_R][HIT] = 0
	L2_cache_stats_breakdown[CONST_ACC_R][HIT_RESERVED] = 0
	L2_cache_stats_breakdown[CONST_ACC_R][MISS] = 0
	L2_cache_stats_breakdown[CONST_ACC_R][RESERVATION_FAIL] = 0
	L2_cache_stats_breakdown[CONST_ACC_R][SECTOR_MISS] = 0
	L2_cache_stats_breakdown[CONST_ACC_R][MSHR_HIT] = 0
	L2_cache_stats_breakdown[TEXTURE_ACC_R][HIT] = 0
	L2_cache_stats_breakdown[TEXTURE_ACC_R][HIT_RESERVED] = 0
	L2_cache_stats_breakdown[TEXTURE_ACC_R][MISS] = 0
	L2_cache_stats_breakdown[TEXTURE_ACC_R][RESERVATION_FAIL] = 0
	L2_cache_stats_breakdown[TEXTURE_ACC_R][SECTOR_MISS] = 0
	L2_cache_stats_breakdown[TEXTURE_ACC_R][MSHR_HIT] = 0
	L2_cache_stats_breakdown[GLOBAL_ACC_W][HIT] = 16777216
	L2_cache_stats_breakdown[GLOBAL_ACC_W][HIT_RESERVED] = 0
	L2_cache_stats_breakdown[GLOBAL_ACC_W][MISS] = 0
	L2_cache_stats_breakdown[GLOBAL_ACC_W][RESERVATION_FAIL] = 0
	L2_cache_stats_breakdown[GLOBAL_ACC_W][SECTOR_MISS] = 0
	L2_cache_stats_breakdown[GLOBAL_ACC_W][MSHR_HIT] = 0
	L2_cache_stats_breakdown[LOCAL_ACC_W][HIT] = 0
	L2_cache_stats_breakdown[LOCAL_ACC_W][HIT_RESERVED] = 0
	L2_cache_stats_breakdown[LOCAL_ACC_W][MISS] = 0
	L2_cache_stats_breakdown[LOCAL_ACC_W][RESERVATION_FAIL] = 0
	L2_cache_stats_breakdown[LOCAL_ACC_W][SECTOR_MISS] = 0
	L2_cache_stats_breakdown[LOCAL_ACC_W][MSHR_HIT] = 0
	L2_cache_stats_breakdown[L1_WRBK_ACC][HIT] = 0
	L2_cache_stats_breakdown[L1_WRBK_ACC][HIT_RESERVED] = 0
	L2_cache_stats_breakdown[L1_WRBK_ACC][MISS] = 0
	L2_cache_stats_breakdown[L1_WRBK_ACC][RESERVATION_FAIL] = 0
	L2_cache_stats_breakdown[L1_WRBK_ACC][SECTOR_MISS] = 0
	L2_cache_stats_breakdown[L1_WRBK_ACC][MSHR_HIT] = 0
	L2_cache_stats_breakdown[L2_WRBK_ACC][HIT] = 0
	L2_cache_stats_breakdown[L2_WRBK_ACC][HIT_RESERVED] = 0
	L2_cache_stats_breakdown[L2_WRBK_ACC][MISS] = 0
	L2_cache_stats_breakdown[L2_WRBK_ACC][RESERVATION_FAIL] = 0
	L2_cache_stats_breakdown[L2_WRBK_ACC][SECTOR_MISS] = 0
	L2_cache_stats_breakdown[L2_WRBK_ACC][MSHR_HIT] = 0
	L2_cache_stats_breakdown[INST_ACC_R][HIT] = 0
	L2_cache_stats_breakdown[INST_ACC_R][HIT_RESERVED] = 0
	L2_cache_stats_breakdown[INST_ACC_R][MISS] = 0
	L2_cache_stats_breakdown[INST_ACC_R][RESERVATION_FAIL] = 0
	L2_cache_stats_breakdown[INST_ACC_R][SECTOR_MISS] = 0
	L2_cache_stats_breakdown[INST_ACC_R][MSHR_HIT] = 0
	L2_cache_stats_breakdown[L1_WR_ALLOC_R][HIT] = 0
	L2_cache_stats_breakdown[L1_WR_ALLOC_R][HIT_RESERVED] = 0
	L2_cache_stats_breakdown[L1_WR_ALLOC_R][MISS] = 0
	L2_cache_stats_breakdown[L1_WR_ALLOC_R][RESERVATION_FAIL] = 0
	L2_cache_stats_breakdown[L1_WR_ALLOC_R][SECTOR_MISS] = 0
	L2_cache_stats_breakdown[L1_WR_ALLOC_R][MSHR_HIT] = 0
	L2_cache_stats_breakdown[L2_WR_ALLOC_R][HIT] = 0
	L2_cache_stats_breakdown[L2_WR_ALLOC_R][HIT_RESERVED] = 0
	L2_cache_stats_breakdown[L2_WR_ALLOC_R][MISS] = 0
	L2_cache_stats_breakdown[L2_WR_ALLOC_R][RESERVATION_FAIL] = 0
	L2_cache_stats_breakdown[L2_WR_ALLOC_R][SECTOR_MISS] = 0
	L2_cache_stats_breakdown[L2_WR_ALLOC_R][MSHR_HIT] = 0
	L2_cache_stats_breakdown[GLOBAL_ACC_R][TOTAL_ACCESS] = 1309892
	L2_cache_stats_breakdown[GLOBAL_ACC_W][TOTAL_ACCESS] = 16777216
L2_total_cache_reservation_fail_breakdown:
	L2_cache_stats_fail_breakdown[GLOBAL_ACC_R][MSHR_MERGE_ENRTY_FAIL] = 21620
L2_cache_data_port_util = 0.355
L2_cache_fill_port_util = 0.002

icnt_total_pkts_mem_to_simt=54303900
icnt_total_pkts_simt_to_mem=54303900
LD_mem_lat_dist  0 0 0 0 0 0 0 0 0 0 0 0 0 0 0 0 0 0 0 0 0 0 0 0 0 0 0
ST_mem_lat_dist  0 0 0 0 0 0 0 0 0 0 0 0 0 0 0 0 0 0 0 0 0 0 0 0 0 0 0
----------------------------Interconnect-DETAILS--------------------------------
Req_Network_injected_packets_num = 54303900
Req_Network_cycles = 3174388
Req_Network_injected_packets_per_cycle =      17.1069 
Req_Network_conflicts_per_cycle =      14.2667
Req_Network_conflicts_per_cycle_util =      14.3346
Req_Bank_Level_Parallism =      17.1884
Req_Network_in_buffer_full_per_cycle =       2.2856
Req_Network_in_buffer_avg_util =     186.4746
Req_Network_out_buffer_full_per_cycle =       0.0179
Req_Network_out_buffer_avg_util =       7.2407

Reply_Network_injected_packets_num = 54303900
Reply_Network_cycles = 3174388
Reply_Network_injected_packets_per_cycle =       17.1069
Reply_Network_conflicts_per_cycle =       18.3760
Reply_Network_conflicts_per_cycle_util =      18.4526
Reply_Bank_Level_Parallism =      17.1782
Reply_Network_in_buffer_full_per_cycle =       0.9213
Reply_Network_in_buffer_avg_util =      41.5370
Reply_Network_out_buffer_full_per_cycle =       0.0000
Reply_Network_out_buffer_avg_util =       0.4277
----------------------------END-of-Interconnect-DETAILS-------------------------


gpgpu_simulation_time = 0 days, 5 hrs, 17 min, 26 sec (19046 sec)
gpgpu_simulation_rate = 106820 (inst/sec)
gpgpu_simulation_rate = 166 (cycle/sec)
gpgpu_silicon_slowdown = 7228915x
GPGPU-Sim: synchronize waiting for inactive GPU simulation
GPGPU-Sim API: Stream Manager State
GPGPU-Sim: detected inactive GPU simulation thread
GPU Runtime: 19045.761494s
CPU Runtime: 3.299445s
Non-Matching CPU-GPU Outputs Beyond Error Threshold of 0.05 Percent: 0
GPGPU-Sim: *** exit detected ***
