self exe links to: /workspace/gpgpu-sim_simulations/benchmarks/src/cuda/bin/release/BICG
self exe links to: /workspace/gpgpu-sim_simulations/benchmarks/src/cuda/bin/release/BICG
10.1


        *** GPGPU-Sim Simulator Version 4.2.0  [build gpgpu-sim_git-commit-a4ce3fe_modified_0.0] ***


GPGPU-Sim PTX: simulation mode 0 (can change with PTX_SIM_MODE_FUNC environment variable:
               1=functional simulation only, 0=detailed performance simulator)
GPGPU-Sim PTX: overriding embedded ptx with ptx file (PTX_SIM_USE_PTX_FILE is set)
GPGPU-Sim: Configuration options:

-save_embedded_ptx                      0 # saves ptx files embedded in binary as <n>.ptx
-keep                                   0 # keep intermediate files created by GPGPU-Sim when interfacing with external programs
-gpgpu_ptx_save_converted_ptxplus                    0 # Saved converted ptxplus to a file
-gpgpu_occupancy_sm_number                   70 # The SM number to pass to ptxas when getting register usage for computing GPU occupancy. This parameter is required in the config.
-ptx_opcode_latency_int      4,13,4,5,145,32 # Opcode latencies for integers <ADD,MAX,MUL,MAD,DIV,SHFL>Default 1,1,19,25,145,32
-ptx_opcode_latency_fp          4,13,4,5,39 # Opcode latencies for single precision floating points <ADD,MAX,MUL,MAD,DIV>Default 1,1,1,1,30
-ptx_opcode_latency_dp         8,19,8,8,330 # Opcode latencies for double precision floating points <ADD,MAX,MUL,MAD,DIV>Default 8,8,8,8,335
-ptx_opcode_latency_sfu                  100 # Opcode latencies for SFU instructionsDefault 8
-ptx_opcode_latency_tesnor                   64 # Opcode latencies for Tensor instructionsDefault 64
-ptx_opcode_initiation_int          2,2,2,2,8,4 # Opcode initiation intervals for integers <ADD,MAX,MUL,MAD,DIV,SHFL>Default 1,1,4,4,32,4
-ptx_opcode_initiation_fp            2,2,2,2,4 # Opcode initiation intervals for single precision floating points <ADD,MAX,MUL,MAD,DIV>Default 1,1,1,1,5
-ptx_opcode_initiation_dp          4,4,4,4,130 # Opcode initiation intervals for double precision floating points <ADD,MAX,MUL,MAD,DIV>Default 8,8,8,8,130
-ptx_opcode_initiation_sfu                    8 # Opcode initiation intervals for sfu instructionsDefault 8
-ptx_opcode_initiation_tensor                   64 # Opcode initiation intervals for tensor instructionsDefault 64
-cdp_latency         7200,8000,100,12000,1600 # CDP API latency <cudaStreamCreateWithFlags, cudaGetParameterBufferV2_init_perWarp, cudaGetParameterBufferV2_perKernel, cudaLaunchDeviceV2_init_perWarp, cudaLaunchDevicV2_perKernel>Default 7200,8000,100,12000,1600
-network_mode                           2 # Interconnection network mode
-inter_config_file                   mesh # Interconnection network config file
-icnt_in_buffer_limit                  512 # in_buffer_limit
-icnt_out_buffer_limit                  512 # out_buffer_limit
-icnt_subnets                           2 # subnets
-icnt_arbiter_algo                      1 # arbiter_algo
-icnt_verbose                           0 # inct_verbose
-icnt_grant_cycles                      1 # grant_cycles
-gpgpu_ptx_use_cuobjdump                    1 # Use cuobjdump to extract ptx and sass from binaries
-gpgpu_experimental_lib_support                    0 # Try to extract code from cuda libraries [Broken because of unknown cudaGetExportTable]
-checkpoint_option                      0 #  checkpointing flag (0 = no checkpoint)
-checkpoint_kernel                      1 #  checkpointing during execution of which kernel (1- 1st kernel)
-checkpoint_CTA                         0 #  checkpointing after # of CTA (< less than total CTA)
-resume_option                          0 #  resume flag (0 = no resume)
-resume_kernel                          0 #  Resume from which kernel (1= 1st kernel)
-resume_CTA                             0 #  resume from which CTA 
-checkpoint_CTA_t                       0 #  resume from which CTA 
-checkpoint_insn_Y                      0 #  resume from which CTA 
-gpgpu_ptx_convert_to_ptxplus                    0 # Convert SASS (native ISA) to ptxplus and run ptxplus
-gpgpu_ptx_force_max_capability                   70 # Force maximum compute capability
-gpgpu_ptx_inst_debug_to_file                    0 # Dump executed instructions' debug information to file
-gpgpu_ptx_inst_debug_file       inst_debug.txt # Executed instructions' debug output file
-gpgpu_ptx_inst_debug_thread_uid                    1 # Thread UID for executed instructions' debug output
-gpgpu_simd_model                       1 # 1 = post-dominator
-gpgpu_shader_core_pipeline              2048:32 # shader core pipeline config, i.e., {<nthread>:<warpsize>}
-gpgpu_tex_cache:l1  N:4:128:256,L:R:m:N:L,T:512:8,128:2 # per-shader L1 texture cache  (READ-ONLY) config  {<nsets>:<bsize>:<assoc>,<rep>:<wr>:<alloc>:<wr_alloc>,<mshr>:<N>:<merge>,<mq>:<rf>}
-gpgpu_const_cache:l1 N:128:64:8,L:R:f:N:L,S:2:64,4 # per-shader L1 constant memory cache  (READ-ONLY) config  {<nsets>:<bsize>:<assoc>,<rep>:<wr>:<alloc>:<wr_alloc>,<mshr>:<N>:<merge>,<mq>} 
-gpgpu_cache:il1     N:64:128:16,L:R:f:N:L,S:2:48,4 # shader L1 instruction cache config  {<nsets>:<bsize>:<assoc>,<rep>:<wr>:<alloc>:<wr_alloc>,<mshr>:<N>:<merge>,<mq>} 
-gpgpu_cache:dl1     S:4:128:64,L:T:m:L:L,A:512:8,16:0,32 # per-shader L1 data cache config  {<nsets>:<bsize>:<assoc>,<rep>:<wr>:<alloc>:<wr_alloc>,<mshr>:<N>:<merge>,<mq> | none}
-gpgpu_l1_cache_write_ratio                   25 # L1D write ratio
-gpgpu_l1_banks                         4 # The number of L1 cache banks
-gpgpu_l1_banks_byte_interleaving                   32 # l1 banks byte interleaving granularity
-gpgpu_l1_banks_hashing_function                    0 # l1 banks hashing function
-gpgpu_l1_latency                      20 # L1 Hit Latency
-gpgpu_smem_latency                    20 # smem Latency
-gpgpu_cache:dl1PrefL1                 none # per-shader L1 data cache config  {<nsets>:<bsize>:<assoc>,<rep>:<wr>:<alloc>:<wr_alloc>,<mshr>:<N>:<merge>,<mq> | none}
-gpgpu_cache:dl1PrefShared                 none # per-shader L1 data cache config  {<nsets>:<bsize>:<assoc>,<rep>:<wr>:<alloc>:<wr_alloc>,<mshr>:<N>:<merge>,<mq> | none}
-gpgpu_gmem_skip_L1D                    0 # global memory access skip L1D cache (implements -Xptxas -dlcm=cg, default=no skip)
-gpgpu_perfect_mem                      0 # enable perfect memory mode (no cache miss)
-n_regfile_gating_group                    4 # group of lanes that should be read/written together)
-gpgpu_clock_gated_reg_file                    0 # enable clock gated reg file for power calculations
-gpgpu_clock_gated_lanes                    0 # enable clock gated lanes for power calculations
-gpgpu_shader_registers                65536 # Number of registers per shader core. Limits number of concurrent CTAs. (default 8192)
-gpgpu_registers_per_block                65536 # Maximum number of registers per CTA. (default 8192)
-gpgpu_ignore_resources_limitation                    0 # gpgpu_ignore_resources_limitation (default 0)
-gpgpu_shader_cta                      32 # Maximum number of concurrent CTAs in shader (default 32)
-gpgpu_num_cta_barriers                   16 # Maximum number of named barriers per CTA (default 16)
-gpgpu_n_clusters                      40 # number of processing clusters
-gpgpu_n_cores_per_cluster                    2 # number of simd cores per cluster
-gpgpu_n_cluster_ejection_buffer_size                   32 # number of packets in ejection buffer
-gpgpu_n_ldst_response_buffer_size                    2 # number of response packets in ld/st unit ejection buffer
-gpgpu_shmem_per_block                65536 # Size of shared memory per thread block or CTA (default 48kB)
-gpgpu_shmem_size                   98304 # Size of shared memory per shader core (default 16kB)
-gpgpu_shmem_option       0,8,16,32,64,96 # Option list of shared memory sizes
-gpgpu_unified_l1d_size                  128 # Size of unified data cache(L1D + shared memory) in KB
-gpgpu_adaptive_cache_config                    1 # adaptive_cache_config
-gpgpu_shmem_sizeDefault                98304 # Size of shared memory per shader core (default 16kB)
-gpgpu_shmem_size_PrefL1                16384 # Size of shared memory per shader core (default 16kB)
-gpgpu_shmem_size_PrefShared                16384 # Size of shared memory per shader core (default 16kB)
-gpgpu_shmem_num_banks                   32 # Number of banks in the shared memory in each shader core (default 16)
-gpgpu_shmem_limited_broadcast                    0 # Limit shared memory to do one broadcast per cycle (default on)
-gpgpu_shmem_warp_parts                    1 # Number of portions a warp is divided into for shared memory bank conflict check 
-gpgpu_mem_unit_ports                    1 # The number of memory transactions allowed per core cycle
-gpgpu_shmem_warp_parts                    1 # Number of portions a warp is divided into for shared memory bank conflict check 
-gpgpu_warpdistro_shader                   -1 # Specify which shader core to collect the warp size distribution from
-gpgpu_warp_issue_shader                    0 # Specify which shader core to collect the warp issue distribution from
-gpgpu_local_mem_map                    1 # Mapping from local memory space address to simulated GPU physical address space (default = enabled)
-gpgpu_num_reg_banks                    8 # Number of register banks (default = 8)
-gpgpu_reg_bank_use_warp_id                    0 # Use warp ID in mapping registers to banks (default = off)
-gpgpu_sub_core_model                    1 # Sub Core Volta/Pascal model (default = off)
-gpgpu_enable_specialized_operand_collector                    0 # enable_specialized_operand_collector
-gpgpu_operand_collector_num_units_sp                    4 # number of collector units (default = 4)
-gpgpu_operand_collector_num_units_dp                    0 # number of collector units (default = 0)
-gpgpu_operand_collector_num_units_sfu                    4 # number of collector units (default = 4)
-gpgpu_operand_collector_num_units_int                    0 # number of collector units (default = 0)
-gpgpu_operand_collector_num_units_tensor_core                    4 # number of collector units (default = 4)
-gpgpu_operand_collector_num_units_mem                    2 # number of collector units (default = 2)
-gpgpu_operand_collector_num_units_gen                    8 # number of collector units (default = 0)
-gpgpu_operand_collector_num_in_ports_sp                    1 # number of collector unit in ports (default = 1)
-gpgpu_operand_collector_num_in_ports_dp                    0 # number of collector unit in ports (default = 0)
-gpgpu_operand_collector_num_in_ports_sfu                    1 # number of collector unit in ports (default = 1)
-gpgpu_operand_collector_num_in_ports_int                    0 # number of collector unit in ports (default = 0)
-gpgpu_operand_collector_num_in_ports_tensor_core                    1 # number of collector unit in ports (default = 1)
-gpgpu_operand_collector_num_in_ports_mem                    1 # number of collector unit in ports (default = 1)
-gpgpu_operand_collector_num_in_ports_gen                    8 # number of collector unit in ports (default = 0)
-gpgpu_operand_collector_num_out_ports_sp                    1 # number of collector unit in ports (default = 1)
-gpgpu_operand_collector_num_out_ports_dp                    0 # number of collector unit in ports (default = 0)
-gpgpu_operand_collector_num_out_ports_sfu                    1 # number of collector unit in ports (default = 1)
-gpgpu_operand_collector_num_out_ports_int                    0 # number of collector unit in ports (default = 0)
-gpgpu_operand_collector_num_out_ports_tensor_core                    1 # number of collector unit in ports (default = 1)
-gpgpu_operand_collector_num_out_ports_mem                    1 # number of collector unit in ports (default = 1)
-gpgpu_operand_collector_num_out_ports_gen                    8 # number of collector unit in ports (default = 0)
-gpgpu_coalesce_arch                   60 # Coalescing arch (GT200 = 13, Fermi = 20)
-gpgpu_num_sched_per_core                    4 # Number of warp schedulers per core
-gpgpu_max_insn_issue_per_warp                    1 # Max number of instructions that can be issued per warp in one cycle by scheduler (either 1 or 2)
-gpgpu_dual_issue_diff_exec_units                    1 # should dual issue use two different execution unit resources (Default = 1)
-gpgpu_simt_core_sim_order                    1 # Select the simulation order of cores in a cluster (0=Fix, 1=Round-Robin)
-gpgpu_pipeline_widths 4,4,4,4,4,4,4,4,4,4,8,4,4 # Pipeline widths ID_OC_SP,ID_OC_DP,ID_OC_INT,ID_OC_SFU,ID_OC_MEM,OC_EX_SP,OC_EX_DP,OC_EX_INT,OC_EX_SFU,OC_EX_MEM,EX_WB,ID_OC_TENSOR_CORE,OC_EX_TENSOR_CORE
-gpgpu_tensor_core_avail                    1 # Tensor Core Available (default=0)
-gpgpu_num_sp_units                     4 # Number of SP units (default=1)
-gpgpu_num_dp_units                     4 # Number of DP units (default=0)
-gpgpu_num_int_units                    4 # Number of INT units (default=0)
-gpgpu_num_sfu_units                    4 # Number of SF units (default=1)
-gpgpu_num_tensor_core_units                    4 # Number of tensor_core units (default=1)
-gpgpu_num_mem_units                    1 # Number if ldst units (default=1) WARNING: not hooked up to anything
-gpgpu_scheduler                      lrr # Scheduler configuration: < lrr | gto | two_level_active > If two_level_active:<num_active_warps>:<inner_prioritization>:<outer_prioritization>For complete list of prioritization values see shader.h enum scheduler_prioritization_typeDefault: gto
-gpgpu_concurrent_kernel_sm                    0 # Support concurrent kernels on a SM (default = disabled)
-gpgpu_perfect_inst_const_cache                    1 # perfect inst and const cache mode, so all inst and const hits in the cache(default = disabled)
-gpgpu_inst_fetch_throughput                    4 # the number of fetched intruction per warp each cycle
-gpgpu_reg_file_port_throughput                    2 # the number ports of the register file
-specialized_unit_1         0,4,4,4,4,BRA # specialized unit config {<enabled>,<num_units>:<latency>:<initiation>,<ID_OC_SPEC>:<OC_EX_SPEC>,<NAME>}
-specialized_unit_2         0,4,4,4,4,BRA # specialized unit config {<enabled>,<num_units>:<latency>:<initiation>,<ID_OC_SPEC>:<OC_EX_SPEC>,<NAME>}
-specialized_unit_3         0,4,4,4,4,BRA # specialized unit config {<enabled>,<num_units>:<latency>:<initiation>,<ID_OC_SPEC>:<OC_EX_SPEC>,<NAME>}
-specialized_unit_4         0,4,4,4,4,BRA # specialized unit config {<enabled>,<num_units>:<latency>:<initiation>,<ID_OC_SPEC>:<OC_EX_SPEC>,<NAME>}
-specialized_unit_5         0,4,4,4,4,BRA # specialized unit config {<enabled>,<num_units>:<latency>:<initiation>,<ID_OC_SPEC>:<OC_EX_SPEC>,<NAME>}
-specialized_unit_6         0,4,4,4,4,BRA # specialized unit config {<enabled>,<num_units>:<latency>:<initiation>,<ID_OC_SPEC>:<OC_EX_SPEC>,<NAME>}
-specialized_unit_7         0,4,4,4,4,BRA # specialized unit config {<enabled>,<num_units>:<latency>:<initiation>,<ID_OC_SPEC>:<OC_EX_SPEC>,<NAME>}
-specialized_unit_8         0,4,4,4,4,BRA # specialized unit config {<enabled>,<num_units>:<latency>:<initiation>,<ID_OC_SPEC>:<OC_EX_SPEC>,<NAME>}
-gpgpu_perf_sim_memcpy                    1 # Fill the L2 cache on memcpy
-gpgpu_simple_dram_model                    0 # simple_dram_model with fixed latency and BW
-gpgpu_dram_scheduler                    1 # 0 = fifo, 1 = FR-FCFS (defaul)
-gpgpu_dram_partition_queues          64:64:64:64 # i2$:$2d:d2$:$2i
-l2_ideal                               0 # Use a ideal L2 cache that always hit
-gpgpu_cache:dl2     S:32:128:24,L:B:m:L:P,A:192:4,32:0,32 # unified banked L2 data cache config  {<nsets>:<bsize>:<assoc>,<rep>:<wr>:<alloc>:<wr_alloc>,<mshr>:<N>:<merge>,<mq>}
-gpgpu_cache:dl2_texture_only                    0 # L2 cache used for texture only
-gpgpu_n_mem                           24 # number of memory modules (e.g. memory controllers) in gpu
-gpgpu_n_sub_partition_per_mchannel                    2 # number of memory subpartition in each memory module
-gpgpu_n_mem_per_ctrlr                    1 # number of memory chips per memory controller
-gpgpu_memlatency_stat                   14 # track and display latency statistics 0x2 enables MC, 0x4 enables queue logs
-gpgpu_frfcfs_dram_sched_queue_size                   64 # 0 = unlimited (default); # entries per chip
-gpgpu_dram_return_queue_size                  192 # 0 = unlimited (default); # entries per chip
-gpgpu_dram_buswidth                   16 # default = 4 bytes (8 bytes per cycle at DDR)
-gpgpu_dram_burst_length                    2 # Burst length of each DRAM request (default = 4 data bus cycle)
-dram_data_command_freq_ratio                    2 # Frequency ratio between DRAM data bus and command bus (default = 2 times, i.e. DDR)
-gpgpu_dram_timing_opt nbk=16:CCD=1:RRD=3:RCD=12:RAS=28:RP=12:RC=40: CL=12:WL=2:CDLR=3:WR=10:nbkgrp=4:CCDL=2:RTPL=3 # DRAM timing parameters = {nbk:tCCD:tRRD:tRCD:tRAS:tRP:tRC:CL:WL:tCDLR:tWR:nbkgrp:tCCDL:tRTPL}
-gpgpu_l2_rop_latency                  160 # ROP queue latency (default 85)
-dram_latency                         100 # DRAM latency (default 30)
-dram_dual_bus_interface                  257 # dual_bus_interface (default = 0) 
-dram_bnk_indexing_policy                    1 # dram_bnk_indexing_policy (0 = normal indexing, 1 = Xoring with the higher bits) (Default = 0)
-dram_bnkgrp_indexing_policy                    1 # dram_bnkgrp_indexing_policy (0 = take higher bits, 1 = take lower bits) (Default = 0)
-dram_seperate_write_queue_enable                    1 # Seperate_Write_Queue_Enable
-dram_write_queue_size           128:108:32 # Write_Queue_Size
-dram_elimnate_rw_turnaround                    0 # elimnate_rw_turnaround i.e set tWTR and tRTW = 0
-icnt_flit_size                        40 # icnt_flit_size
-SST_mode                               0 # SST mode
-gpgpu_mem_addr_mapping dramid@8;00000000.00000000.00000000.00000000.0000RRRR.RRRRRRRR.RBBBCCCB.CCCSSSSS # mapping memory address to dram model {dramid@<start bit>;<memory address map>}
-gpgpu_mem_addr_test                    0 # run sweep test to check address mapping for aliased address
-gpgpu_mem_address_mask                    1 # 0 = old addressing mask, 1 = new addressing mask, 2 = new add. mask + flipped bank sel and chip sel bits
-gpgpu_memory_partition_indexing                    2 # 0 = no indexing, 1 = bitwise xoring, 2 = IPoly, 3 = custom indexing
-accelwattch_xml_file accelwattch_sass_sim.xml # AccelWattch XML file
-power_simulation_enabled                    0 # Turn on power simulator (1=On, 0=Off)
-power_per_cycle_dump                    0 # Dump detailed power output each cycle
-hw_perf_file_name            hw_perf.csv # Hardware Performance Statistics file
-hw_perf_bench_name                       # Kernel Name in Hardware Performance Statistics file
-power_simulation_mode                    0 # Switch performance counter input for power simulation (0=Sim, 1=HW, 2=HW-Sim Hybrid)
-dvfs_enabled                           0 # Turn on DVFS for power model
-aggregate_power_stats                    0 # Accumulate power across all kernels
-accelwattch_hybrid_perfsim_L1_RH                    0 # Get L1 Read Hits for Accelwattch-Hybrid from Accel-Sim
-accelwattch_hybrid_perfsim_L1_RM                    0 # Get L1 Read Misses for Accelwattch-Hybrid from Accel-Sim
-accelwattch_hybrid_perfsim_L1_WH                    0 # Get L1 Write Hits for Accelwattch-Hybrid from Accel-Sim
-accelwattch_hybrid_perfsim_L1_WM                    0 # Get L1 Write Misses for Accelwattch-Hybrid from Accel-Sim
-accelwattch_hybrid_perfsim_L2_RH                    0 # Get L2 Read Hits for Accelwattch-Hybrid from Accel-Sim
-accelwattch_hybrid_perfsim_L2_RM                    0 # Get L2 Read Misses for Accelwattch-Hybrid from Accel-Sim
-accelwattch_hybrid_perfsim_L2_WH                    0 # Get L2 Write Hits for Accelwattch-Hybrid from Accel-Sim
-accelwattch_hybrid_perfsim_L2_WM                    0 # Get L2 Write Misses for Accelwattch-Hybrid from Accel-Sim
-accelwattch_hybrid_perfsim_CC_ACC                    0 # Get Constant Cache Acesses for Accelwattch-Hybrid from Accel-Sim
-accelwattch_hybrid_perfsim_SHARED_ACC                    0 # Get Shared Memory Acesses for Accelwattch-Hybrid from Accel-Sim
-accelwattch_hybrid_perfsim_DRAM_RD                    0 # Get DRAM Reads for Accelwattch-Hybrid from Accel-Sim
-accelwattch_hybrid_perfsim_DRAM_WR                    0 # Get DRAM Writes for Accelwattch-Hybrid from Accel-Sim
-accelwattch_hybrid_perfsim_NOC                    0 # Get Interconnect Acesses for Accelwattch-Hybrid from Accel-Sim
-accelwattch_hybrid_perfsim_PIPE_DUTY                    0 # Get Pipeline Duty Cycle Acesses for Accelwattch-Hybrid from Accel-Sim
-accelwattch_hybrid_perfsim_NUM_SM_IDLE                    0 # Get Number of Idle SMs for Accelwattch-Hybrid from Accel-Sim
-accelwattch_hybrid_perfsim_CYCLES                    0 # Get Executed Cycles for Accelwattch-Hybrid from Accel-Sim
-accelwattch_hybrid_perfsim_VOLTAGE                    0 # Get Chip Voltage for Accelwattch-Hybrid from Accel-Sim
-power_trace_enabled                    0 # produce a file for the power trace (1=On, 0=Off)
-power_trace_zlevel                     6 # Compression level of the power trace output log (0=no comp, 9=highest)
-steady_power_levels_enabled                    0 # produce a file for the steady power levels (1=On, 0=Off)
-steady_state_definition                  8:4 # allowed deviation:number of samples
-gpgpu_max_cycle                        0 # terminates gpu simulation early (0 = no limit)
-gpgpu_max_insn                         0 # terminates gpu simulation early (0 = no limit)
-gpgpu_max_cta                          0 # terminates gpu simulation early (0 = no limit)
-gpgpu_max_completed_cta                    0 # terminates gpu simulation early (0 = no limit)
-gpgpu_runtime_stat                   500 # display runtime statistics such as dram utilization {<freq>:<flag>}
-liveness_message_freq                    1 # Minimum number of seconds between simulation liveness messages (0 = always print)
-gpgpu_compute_capability_major                    7 # Major compute capability version number
-gpgpu_compute_capability_minor                    0 # Minor compute capability version number
-gpgpu_flush_l1_cache                    1 # Flush L1 cache at the end of each kernel call
-gpgpu_flush_l2_cache                    0 # Flush L2 cache at the end of each kernel call
-gpgpu_deadlock_detect                    1 # Stop the simulation at deadlock (1=on (default), 0=off)
-gpgpu_ptx_instruction_classification                    0 # if enabled will classify ptx instruction types per kernel (Max 255 kernels now)
-gpgpu_ptx_sim_mode                     0 # Select between Performance (default) or Functional simulation (1)
-gpgpu_clock_domains 1200.0:1200.0:1200.0:850.0 # Clock Domain Frequencies in MhZ {<Core Clock>:<ICNT Clock>:<L2 Clock>:<DRAM Clock>}
-gpgpu_max_concurrent_kernel                  128 # maximum kernels that can run concurrently on GPU, set this value according to max resident grids for your compute capability
-gpgpu_cflog_interval                    0 # Interval between each snapshot in control flow logger
-visualizer_enabled                     0 # Turn on visualizer output (1=On, 0=Off)
-visualizer_outputfile                 NULL # Specifies the output log file for visualizer
-visualizer_zlevel                      6 # Compression level of the visualizer output log (0=no comp, 9=highest)
-gpgpu_stack_size_limit                 1024 # GPU thread stack size
-gpgpu_heap_size_limit              8388608 # GPU malloc heap size 
-gpgpu_runtime_sync_depth_limit                    2 # GPU device runtime synchronize depth
-gpgpu_runtime_pending_launch_count_limit                 2048 # GPU device runtime pending launch count
-trace_enabled                          0 # Turn on traces
-trace_components                    none # comma seperated list of traces to enable. Complete list found in trace_streams.tup. Default none
-trace_sampling_core                    0 # The core which is printed using CORE_DPRINTF. Default 0
-trace_sampling_memory_partition                   -1 # The memory partition which is printed using MEMPART_DPRINTF. Default -1 (i.e. all)
-enable_ptx_file_line_stats                    1 # Turn on PTX source line statistic profiling. (1 = On)
-ptx_line_stats_filename gpgpu_inst_stats.txt # Output file for PTX source line statistics.
-gpgpu_kernel_launch_latency                    0 # Kernel launch latency in cycles. Default: 0
-gpgpu_cdp_enabled                      0 # Turn on CDP
-gpgpu_TB_launch_latency                    0 # thread block launch latency in cycles. Default: 0
DRAM Timing Options:
nbk                                    16 # number of banks
CCD                                     1 # column to column delay
RRD                              9015feb449e0dcfcbe943eeb2410e0e0  /workspace/gpgpu-sim_simulations/benchmarks/src/cuda/bin/release/BICG
Extracting PTX file and ptxas options    1: BICG.1.sm_30.ptx -arch=sm_30
       3 # minimal delay between activation of rows in different banks
RCD                                    12 # row to column delay
RAS                                    28 # time needed to activate row
RP                                     12 # time needed to precharge (deactivate) row
RC                                     40 # row cycle time
CDLR                                    3 # switching from write to read (changes tWTR)
WR                                     10 # last data-in to row precharge
CL                                     12 # CAS latency
WL                                      2 # Write latency
nbkgrp                                  4 # number of bank groups
CCDL                                    2 # column to column delay between accesses to different bank groups
RTPL                                    3 # read to precharge delay between accesses to different bank groups
Total number of memory sub partition = 48
addr_dec_mask[CHIP]  = 0000000000000000 	high:64 low:0
addr_dec_mask[BK]    = 0000000000007100 	high:15 low:8
addr_dec_mask[ROW]   = 000000000fff8000 	high:28 low:15
addr_dec_mask[COL]   = 0000000000000eff 	high:12 low:0
addr_dec_mask[BURST] = 000000000000001f 	high:5 low:0
sub_partition_id_mask = 0000000000000100
GPGPU-Sim uArch: clock freqs: 1200000000.000000:1200000000.000000:1200000000.000000:850000000.000000
GPGPU-Sim uArch: clock periods: 0.00000000083333333333:0.00000000083333333333:0.00000000083333333333:0.00000000117647058824
*** Initializing Memory Statistics ***
GPGPU-Sim uArch: performance model initialization complete.
GPGPU-Sim PTX: __cudaRegisterFatBinary, fat_cubin_handle = 1, filename=default
self exe links to: /workspace/gpgpu-sim_simulations/benchmarks/src/cuda/bin/release/BICG
Running md5sum using "md5sum /workspace/gpgpu-sim_simulations/benchmarks/src/cuda/bin/release/BICG "
self exe links to: /workspace/gpgpu-sim_simulations/benchmarks/src/cuda/bin/release/BICG
Extracting specific PTX file named BICG.1.sm_30.ptx 
GPGPU-Sim PTX: __cudaRegisterFunction _Z12bicg_kernel2PfS_S_ : hostFun 0x0x5752fa001c8c, fat_cubin_handle = 1
GPGPU-Sim PTX: Parsing BICG.1.sm_30.ptx
GPGPU-Sim PTX: instruction assembly for function '_Z12bicg_kernel1PfS_S_'...   done.
GPGPU-Sim PTX: instruction assembly for function '_Z12bicg_kernel2PfS_S_'...   done.
GPGPU-Sim PTX: finished parsing EMBEDDED .ptx file BICG.1.sm_30.ptx
GPGPU-Sim PTX: loading globals with explicit initializers... 
GPGPU-Sim PTX: finished loading globals (0 bytes total).
GPGPU-Sim PTX: loading constants with explicit initializers...  done.
GPGPU-Sim PTX: Loading PTXInfo from BICG.1.sm_30.ptx
GPGPU-Sim PTX: Kernel '_Z12bicg_kernel2PfS_S_' : regs=20, lmem=0, smem=0, cmem=344
GPGPU-Sim PTX: Kernel '_Z12bicg_kernel1PfS_S_' : regs=18, lmem=0, smem=0, cmem=344
GPGPU-Sim PTX: __cudaRegisterFunction _Z12bicg_kernel1PfS_S_ : hostFun 0x0x5752fa001b07, fat_cubin_handle = 1
setting device 0 with name GPGPU-Sim_vGPGPU-Sim Simulator Version 4.2.0 
GPGPU-Sim PTX: Setting up arguments for 8 bytes starting at 0x7ffcf3297b38..
GPGPU-Sim PTX: Setting up arguments for 8 bytes starting at 0x7ffcf3297b30..
GPGPU-Sim PTX: Setting up arguments for 8 bytes starting at 0x7ffcf3297b28..

GPGPU-Sim PTX: cudaLaunch for 0x0x5752fa001b07 (mode=performance simulation) on stream 0
GPGPU-Sim PTX: finding reconvergence points for '_Z12bicg_kernel1PfS_S_'...
GPGPU-Sim PTX: Finding dominators for '_Z12bicg_kernel1PfS_S_'...
GPGPU-Sim PTX: Finding immediate dominators for '_Z12bicg_kernel1PfS_S_'...
GPGPU-Sim PTX: Finding postdominators for '_Z12bicg_kernel1PfS_S_'...
GPGPU-Sim PTX: Finding immediate postdominators for '_Z12bicg_kernel1PfS_S_'...
GPGPU-Sim PTX: pre-decoding instructions for '_Z12bicg_kernel1PfS_S_'...
GPGPU-Sim PTX: reconvergence points for _Z12bicg_kernel1PfS_S_...
GPGPU-Sim PTX:  1 (potential) branch divergence @  PC=0x040 (BICG.1.sm_30.ptx:35) @%p1 bra BB0_3;
GPGPU-Sim PTX:    immediate post dominator      @  PC=0x1c8 (BICG.1.sm_30.ptx:89) ret;
GPGPU-Sim PTX:  2 (potential) branch divergence @  PC=0x1c0 (BICG.1.sm_30.ptx:86) @%p2 bra BB0_2;
GPGPU-Sim PTX:    immediate post dominator      @  PC=0x1c8 (BICG.1.sm_30.ptx:89) ret;
GPGPU-Sim PTX: ... end of reconvergence points for _Z12bicg_kernel1PfS_S_
GPGPU-Sim PTX: ... done pre-decoding instructions for '_Z12bicg_kernel1PfS_S_'.
GPGPU-Sim PTX: pushing kernel '_Z12bicg_kernel1PfS_S_' to stream 0, gridDim= (16,1,1) blockDim = (256,1,1) 
GPGPU-Sim uArch: Shader 0 bind to kernel 1 '_Z12bicg_kernel1PfS_S_'
GPGPU-Sim uArch: CTA/core = 8, limited by: threads
GPGPU-Sim: Reconfigure L1 cache to 128KB
GPGPU-Sim uArch: Shader 2 bind to kernel 1 '_Z12bicg_kernel1PfS_S_'
GPGPU-Sim uArch: Shader 4 bind to kernel 1 '_Z12bicg_kernel1PfS_S_'
GPGPU-Sim uArch: Shader 6 bind to kernel 1 '_Z12bicg_kernel1PfS_S_'
GPGPU-Sim uArch: Shader 8 bind to kernel 1 '_Z12bicg_kernel1PfS_S_'
GPGPU-Sim uArch: Shader 10 bind to kernel 1 '_Z12bicg_kernel1PfS_S_'
GPGPU-Sim uArch: Shader 12 bind to kernel 1 '_Z12bicg_kernel1PfS_S_'
GPGPU-Sim uArch: Shader 14 bind to kernel 1 '_Z12bicg_kernel1PfS_S_'
GPGPU-Sim uArch: Shader 16 bind to kernel 1 '_Z12bicg_kernel1PfS_S_'
GPGPU-Sim uArch: Shader 18 bind to kernel 1 '_Z12bicg_kernel1PfS_S_'
GPGPU-Sim uArch: Shader 20 bind to kernel 1 '_Z12bicg_kernel1PfS_S_'
GPGPU-Sim uArch: Shader 22 bind to kernel 1 '_Z12bicg_kernel1PfS_S_'
GPGPU-Sim uArch: Shader 24 bind to kernel 1 '_Z12bicg_kernel1PfS_S_'
GPGPU-Sim uArch: Shader 26 bind to kernel 1 '_Z12bicg_kernel1PfS_S_'
GPGPU-Sim uArch: Shader 28 bind to kernel 1 '_Z12bicg_kernel1PfS_S_'
GPGPU-Sim uArch: Shader 30 bind to kernel 1 '_Z12bicg_kernel1PfS_S_'
Destroy streams for kernel 1: size 0
kernel_name = _Z12bicg_kernel1PfS_S_ 
kernel_launch_uid = 1 
kernel_stream_id = 0
gpu_sim_cycle = 1435818
gpu_sim_insn = 81858560
gpu_ipc =      57.0118
gpu_tot_sim_cycle = 1435818
gpu_tot_sim_insn = 81858560
gpu_tot_ipc =      57.0118
gpu_tot_issued_cta = 16
gpu_occupancy = 12.4976% 
gpu_tot_occupancy = 12.4976% 
max_total_param_size = 0
gpu_stall_dramfull = 17
gpu_stall_icnt2sh    = 0
partiton_level_parallism =       2.9273
partiton_level_parallism_total  =       2.9273
partiton_level_parallism_util =       3.0104
partiton_level_parallism_util_total  =       3.0104
L2_BW  =     112.4067 GB/Sec
L2_BW_total  =     112.4067 GB/Sec
gpu_total_sim_rate=60323

========= Core cache stats =========
L1I_cache:
	L1I_total_cache_accesses = 0
	L1I_total_cache_misses = 0
	L1I_total_cache_pending_hits = 0
	L1I_total_cache_reservation_fails = 0
L1D_cache:
	L1D_cache_core[0]: Access = 294944, Miss = 131616, Miss_rate = 0.446, Pending_hits = 2517, Reservation_fails = 235
	L1D_cache_core[1]: Access = 294944, Miss = 131616, Miss_rate = 0.446, Pending_hits = 2928, Reservation_fails = 116
	L1D_cache_core[2]: Access = 294944, Miss = 131616, Miss_rate = 0.446, Pending_hits = 2547, Reservation_fails = 167
	L1D_cache_core[3]: Access = 294944, Miss = 131616, Miss_rate = 0.446, Pending_hits = 3078, Reservation_fails = 120
	L1D_cache_core[4]: Access = 294944, Miss = 131616, Miss_rate = 0.446, Pending_hits = 1151, Reservation_fails = 305
	L1D_cache_core[5]: Access = 294944, Miss = 131616, Miss_rate = 0.446, Pending_hits = 3111, Reservation_fails = 175
	L1D_cache_core[6]: Access = 294944, Miss = 131616, Miss_rate = 0.446, Pending_hits = 2010, Reservation_fails = 112
	L1D_cache_core[7]: Access = 294944, Miss = 131616, Miss_rate = 0.446, Pending_hits = 1839, Reservation_fails = 117
	L1D_cache_core[8]: Access = 294944, Miss = 131616, Miss_rate = 0.446, Pending_hits = 3166, Reservation_fails = 141
	L1D_cache_core[9]: Access = 294944, Miss = 131616, Miss_rate = 0.446, Pending_hits = 2961, Reservation_fails = 130
	L1D_cache_core[10]: Access = 294944, Miss = 131616, Miss_rate = 0.446, Pending_hits = 2828, Reservation_fails = 268
	L1D_cache_core[11]: Access = 294944, Miss = 131616, Miss_rate = 0.446, Pending_hits = 1626, Reservation_fails = 294
	L1D_cache_core[12]: Access = 294944, Miss = 131616, Miss_rate = 0.446, Pending_hits = 3391, Reservation_fails = 179
	L1D_cache_core[13]: Access = 294944, Miss = 131616, Miss_rate = 0.446, Pending_hits = 2544, Reservation_fails = 200
	L1D_cache_core[14]: Access = 294944, Miss = 131616, Miss_rate = 0.446, Pending_hits = 2456, Reservation_fails = 202
	L1D_cache_core[15]: Access = 294944, Miss = 131616, Miss_rate = 0.446, Pending_hits = 3245, Reservation_fails = 192
	L1D_cache_core[16]: Access = 0, Miss = 0, Miss_rate = -nan, Pending_hits = 0, Reservation_fails = 0
	L1D_cache_core[17]: Access = 0, Miss = 0, Miss_rate = -nan, Pending_hits = 0, Reservation_fails = 0
	L1D_cache_core[18]: Access = 0, Miss = 0, Miss_rate = -nan, Pending_hits = 0, Reservation_fails = 0
	L1D_cache_core[19]: Access = 0, Miss = 0, Miss_rate = -nan, Pending_hits = 0, Reservation_fails = 0
	L1D_cache_core[20]: Access = 0, Miss = 0, Miss_rate = -nan, Pending_hits = 0, Reservation_fails = 0
	L1D_cache_core[21]: Access = 0, Miss = 0, Miss_rate = -nan, Pending_hits = 0, Reservation_fails = 0
	L1D_cache_core[22]: Access = 0, Miss = 0, Miss_rate = -nan, Pending_hits = 0, Reservation_fails = 0
	L1D_cache_core[23]: Access = 0, Miss = 0, Miss_rate = -nan, Pending_hits = 0, Reservation_fails = 0
	L1D_cache_core[24]: Access = 0, Miss = 0, Miss_rate = -nan, Pending_hits = 0, Reservation_fails = 0
	L1D_cache_core[25]: Access = 0, Miss = 0, Miss_rate = -nan, Pending_hits = 0, Reservation_fails = 0
	L1D_cache_core[26]: Access = 0, Miss = 0, Miss_rate = -nan, Pending_hits = 0, Reservation_fails = 0
	L1D_cache_core[27]: Access = 0, Miss = 0, Miss_rate = -nan, Pending_hits = 0, Reservation_fails = 0
	L1D_cache_core[28]: Access = 0, Miss = 0, Miss_rate = -nan, Pending_hits = 0, Reservation_fails = 0
	L1D_cache_core[29]: Access = 0, Miss = 0, Miss_rate = -nan, Pending_hits = 0, Reservation_fails = 0
	L1D_cache_core[30]: Access = 0, Miss = 0, Miss_rate = -nan, Pending_hits = 0, Reservation_fails = 0
	L1D_cache_core[31]: Access = 0, Miss = 0, Miss_rate = -nan, Pending_hits = 0, Reservation_fails = 0
	L1D_cache_core[32]: Access = 0, Miss = 0, Miss_rate = -nan, Pending_hits = 0, Reservation_fails = 0
	L1D_cache_core[33]: Access = 0, Miss = 0, Miss_rate = -nan, Pending_hits = 0, Reservation_fails = 0
	L1D_cache_core[34]: Access = 0, Miss = 0, Miss_rate = -nan, Pending_hits = 0, Reservation_fails = 0
	L1D_cache_core[35]: Access = 0, Miss = 0, Miss_rate = -nan, Pending_hits = 0, Reservation_fails = 0
	L1D_cache_core[36]: Access = 0, Miss = 0, Miss_rate = -nan, Pending_hits = 0, Reservation_fails = 0
	L1D_cache_core[37]: Access = 0, Miss = 0, Miss_rate = -nan, Pending_hits = 0, Reservation_fails = 0
	L1D_cache_core[38]: Access = 0, Miss = 0, Miss_rate = -nan, Pending_hits = 0, Reservation_fails = 0
	L1D_cache_core[39]: Access = 0, Miss = 0, Miss_rate = -nan, Pending_hits = 0, Reservation_fails = 0
	L1D_total_cache_accesses = 4719104
	L1D_total_cache_misses = 2105856
	L1D_total_cache_miss_rate = 0.4462
	L1D_total_cache_pending_hits = 41398
	L1D_total_cache_reservation_fails = 2953
	L1D_cache_data_port_util = 0.112
	L1D_cache_fill_port_util = 0.092
L1C_cache:
	L1C_total_cache_accesses = 0
	L1C_total_cache_misses = 0
	L1C_total_cache_pending_hits = 0
	L1C_total_cache_reservation_fails = 0
L1T_cache:
GPGPU-Sim: synchronize waiting for inactive GPU simulation
GPGPU-Sim API: Stream Manager State
	L1T_total_cache_accesses = 0
	L1T_total_cache_misses = 0
	L1T_total_cache_pending_hits = 0
	L1T_total_cache_reservation_fails = 0

Total_core_cache_stats:
	Total_core_cache_stats_breakdown[GLOBAL_ACC_R][HIT] = 474698
	Total_core_cache_stats_breakdown[GLOBAL_ACC_R][HIT_RESERVED] = 41398
	Total_core_cache_stats_breakdown[GLOBAL_ACC_R][MISS] = 526336
	Total_core_cache_stats_breakdown[GLOBAL_ACC_R][RESERVATION_FAIL] = 2618
	Total_core_cache_stats_breakdown[GLOBAL_ACC_R][SECTOR_MISS] = 1579008
	Total_core_cache_stats_breakdown[GLOBAL_ACC_R][MSHR_HIT] = 41398
	Total_core_cache_stats_breakdown[LOCAL_ACC_R][HIT] = 0
	Total_core_cache_stats_breakdown[LOCAL_ACC_R][HIT_RESERVED] = 0
	Total_core_cache_stats_breakdown[LOCAL_ACC_R][MISS] = 0
	Total_core_cache_stats_breakdown[LOCAL_ACC_R][RESERVATION_FAIL] = 0
	Total_core_cache_stats_breakdown[LOCAL_ACC_R][SECTOR_MISS] = 0
	Total_core_cache_stats_breakdown[LOCAL_ACC_R][MSHR_HIT] = 0
	Total_core_cache_stats_breakdown[CONST_ACC_R][HIT] = 0
	Total_core_cache_stats_breakdown[CONST_ACC_R][HIT_RESERVED] = 0
	Total_core_cache_stats_breakdown[CONST_ACC_R][MISS] = 0
	Total_core_cache_stats_breakdown[CONST_ACC_R][RESERVATION_FAIL] = 0
	Total_core_cache_stats_breakdown[CONST_ACC_R][SECTOR_MISS] = 0
	Total_core_cache_stats_breakdown[CONST_ACC_R][MSHR_HIT] = 0
	Total_core_cache_stats_breakdown[TEXTURE_ACC_R][HIT] = 0
	Total_core_cache_stats_breakdown[TEXTURE_ACC_R][HIT_RESERVED] = 0
	Total_core_cache_stats_breakdown[TEXTURE_ACC_R][MISS] = 0
	Total_core_cache_stats_breakdown[TEXTURE_ACC_R][RESERVATION_FAIL] = 0
	Total_core_cache_stats_breakdown[TEXTURE_ACC_R][SECTOR_MISS] = 0
	Total_core_cache_stats_breakdown[TEXTURE_ACC_R][MSHR_HIT] = 0
	Total_core_cache_stats_breakdown[GLOBAL_ACC_W][HIT] = 2097152
	Total_core_cache_stats_breakdown[GLOBAL_ACC_W][HIT_RESERVED] = 0
	Total_core_cache_stats_breakdown[GLOBAL_ACC_W][MISS] = 128
	Total_core_cache_stats_breakdown[GLOBAL_ACC_W][RESERVATION_FAIL] = 335
	Total_core_cache_stats_breakdown[GLOBAL_ACC_W][SECTOR_MISS] = 384
	Total_core_cache_stats_breakdown[GLOBAL_ACC_W][MSHR_HIT] = 0
	Total_core_cache_stats_breakdown[LOCAL_ACC_W][HIT] = 0
	Total_core_cache_stats_breakdown[LOCAL_ACC_W][HIT_RESERVED] = 0
	Total_core_cache_stats_breakdown[LOCAL_ACC_W][MISS] = 0
	Total_core_cache_stats_breakdown[LOCAL_ACC_W][RESERVATION_FAIL] = 0
	Total_core_cache_stats_breakdown[LOCAL_ACC_W][SECTOR_MISS] = 0
	Total_core_cache_stats_breakdown[LOCAL_ACC_W][MSHR_HIT] = 0
	Total_core_cache_stats_breakdown[L1_WRBK_ACC][HIT] = 0
	Total_core_cache_stats_breakdown[L1_WRBK_ACC][HIT_RESERVED] = 0
	Total_core_cache_stats_breakdown[L1_WRBK_ACC][MISS] = 0
	Total_core_cache_stats_breakdown[L1_WRBK_ACC][RESERVATION_FAIL] = 0
	Total_core_cache_stats_breakdown[L1_WRBK_ACC][SECTOR_MISS] = 0
	Total_core_cache_stats_breakdown[L1_WRBK_ACC][MSHR_HIT] = 0
	Total_core_cache_stats_breakdown[L2_WRBK_ACC][HIT] = 0
	Total_core_cache_stats_breakdown[L2_WRBK_ACC][HIT_RESERVED] = 0
	Total_core_cache_stats_breakdown[L2_WRBK_ACC][MISS] = 0
	Total_core_cache_stats_breakdown[L2_WRBK_ACC][RESERVATION_FAIL] = 0
	Total_core_cache_stats_breakdown[L2_WRBK_ACC][SECTOR_MISS] = 0
	Total_core_cache_stats_breakdown[L2_WRBK_ACC][MSHR_HIT] = 0
	Total_core_cache_stats_breakdown[INST_ACC_R][HIT] = 0
	Total_core_cache_stats_breakdown[INST_ACC_R][HIT_RESERVED] = 0
	Total_core_cache_stats_breakdown[INST_ACC_R][MISS] = 0
	Total_core_cache_stats_breakdown[INST_ACC_R][RESERVATION_FAIL] = 0
	Total_core_cache_stats_breakdown[INST_ACC_R][SECTOR_MISS] = 0
	Total_core_cache_stats_breakdown[INST_ACC_R][MSHR_HIT] = 0
	Total_core_cache_stats_breakdown[L1_WR_ALLOC_R][HIT] = 0
	Total_core_cache_stats_breakdown[L1_WR_ALLOC_R][HIT_RESERVED] = 0
	Total_core_cache_stats_breakdown[L1_WR_ALLOC_R][MISS] = 0
	Total_core_cache_stats_breakdown[L1_WR_ALLOC_R][RESERVATION_FAIL] = 0
	Total_core_cache_stats_breakdown[L1_WR_ALLOC_R][SECTOR_MISS] = 0
	Total_core_cache_stats_breakdown[L1_WR_ALLOC_R][MSHR_HIT] = 0
	Total_core_cache_stats_breakdown[L2_WR_ALLOC_R][HIT] = 0
	Total_core_cache_stats_breakdown[L2_WR_ALLOC_R][HIT_RESERVED] = 0
	Total_core_cache_stats_breakdown[L2_WR_ALLOC_R][MISS] = 0
	Total_core_cache_stats_breakdown[L2_WR_ALLOC_R][RESERVATION_FAIL] = 0
	Total_core_cache_stats_breakdown[L2_WR_ALLOC_R][SECTOR_MISS] = 0
	Total_core_cache_stats_breakdown[L2_WR_ALLOC_R][MSHR_HIT] = 0
	Total_core_cache_stats_breakdown[GLOBAL_ACC_R][TOTAL_ACCESS] = 2621440
	Total_core_cache_stats_breakdown[GLOBAL_ACC_W][TOTAL_ACCESS] = 2097664

Total_core_cache_fail_stats:
	Total_core_cache_fail_stats_breakdown[GLOBAL_ACC_R][MISS_QUEUE_FULL] = 2618
	Total_core_cache_fail_stats_breakdown[GLOBAL_ACC_W][MISS_QUEUE_FULL] = 335
ctas_completed 16, Shader 0 warp_id issue ditsribution:
warp_id:
0, 1, 2, 3, 4, 5, 6, 7, 
distro:
19987, 19987, 19987, 19987, 19987, 19987, 19987, 19987, 
gpgpu_n_tot_thrd_icount = 81866752
gpgpu_n_tot_w_icount = 2558336
gpgpu_n_stall_shd_mem = 0
gpgpu_n_mem_read_local = 0
gpgpu_n_mem_write_local = 0
gpgpu_n_mem_read_global = 2105344
gpgpu_n_mem_write_global = 2097664
gpgpu_n_mem_texture = 0
gpgpu_n_mem_const = 0
gpgpu_n_load_insn  = 33554432
gpgpu_n_store_insn = 16781312
gpgpu_n_shmem_insn = 0
gpgpu_n_sstarr_insn = 0
gpgpu_n_tex_insn = 0
gpgpu_n_const_mem_insn = 0
gpgpu_n_param_mem_insn = 12288
gpgpu_n_shmem_bkconflict = 0
gpgpu_n_l1cache_bkconflict = 0
gpgpu_n_intrawarp_mshr_merge = 0
gpgpu_n_cmem_portconflict = 0
gpgpu_stall_shd_mem[c_mem][resource_stall] = 0
gpgpu_stall_shd_mem[s_mem][bk_conf] = 0
gpgpu_stall_shd_mem[gl_mem][resource_stall] = 0
gpgpu_stall_shd_mem[gl_mem][coal_stall] = 0
gpgpu_stall_shd_mem[gl_mem][data_port_stall] = 0
gpu_reg_bank_conflict_stalls = 0
Warp Occupancy Distribution:
Stall:992	W0_Idle:21534	W0_Scoreboard:89265286	W1:0	W2:0	W3:0	W4:0	W5:0	W6:0	W7:0	W8:0	W9:0	W10:0	W11:0	W12:0	W13:0	W14:0	W15:0	W16:0	W17:0	W18:0	W19:0	W20:0	W21:0	W22:0	W23:0	W24:0	W25:0	W26:0	W27:0	W28:0	W29:0	W30:0	W31:0	W32:2558336
single_issue_nums: WS0:639584	WS1:639584	WS2:639584	WS3:639584	
dual_issue_nums: WS0:0	WS1:0	WS2:0	WS3:0	
traffic_breakdown_coretomem[GLOBAL_ACC_R] = 16842752 {8:2105344,}
traffic_breakdown_coretomem[GLOBAL_ACC_W] = 83906560 {40:2097664,}
traffic_breakdown_memtocore[GLOBAL_ACC_R] = 84213760 {40:2105344,}
traffic_breakdown_memtocore[GLOBAL_ACC_W] = 16781312 {8:2097664,}
maxmflatency = 458 
max_icnt2mem_latency = 106 
maxmrqlatency = 117 
max_icnt2sh_latency = 16 
averagemflatency = 256 
avg_icnt2mem_latency = 26 
avg_mrq_latency = 7 
avg_icnt2sh_latency = 2 
mrq_lat_table:485437 	730176 	483401 	84311 	88658 	225368 	277 	0 	0 	0 	0 	0 	0 	0 	0 	0 	0 	0 	0 	0 	0 	0 	0 	0 	0 	0 	0 	0 	0 	0 	0 	0 	
dq_lat_table:0 	0 	0 	0 	0 	0 	0 	0 	0 	0 	0 	0 	0 	0 	0 	0 	0 	0 	0 	0 	0 	0 	0 	0 	0 	0 	0 	0 	0 	0 	0 	0 	
mf_lat_table:0 	0 	0 	0 	0 	0 	0 	2101485 	2101523 	0 	0 	0 	0 	0 	0 	0 	0 	0 	0 	0 	0 	0 	0 	0 	0 	0 	0 	0 	0 	0 	0 	0 	
icnt2mem_lat_table:0 	0 	0 	0 	4074664 	127612 	732 	0 	0 	0 	0 	0 	0 	0 	0 	0 	0 	0 	0 	0 	0 	0 	0 	0 	
icnt2sh_lat_table:0 	4111640 	90502 	864 	2 	0 	0 	0 	0 	0 	0 	0 	0 	0 	0 	0 	0 	0 	0 	0 	0 	0 	0 	0 	
mf_lat_pw_table:0 	0 	0 	0 	0 	0 	0 	1527 	1344 	0 	0 	0 	0 	0 	0 	0 	0 	0 	0 	0 	0 	0 	0 	0 	0 	0 	0 	0 	0 	0 	0 	0 	
maximum concurrent accesses to same row:
dram[0]:        96        96        96        96        96        96        96        96        96        96        96        96        96        96        96        96 
dram[1]:        96        96        96        96        96        96        96        96        96        96        96        96        96        96        96        96 
dram[2]:        96        96        96        96        96        96        96        96        96        96        96        96        96        96        96        96 
dram[3]:        96        96        96        96        96        96        96        96        96        96        96        96        96        96        96        96 
dram[4]:        96        96        96        96        96        96        96        96        96        96        96        96        96        96        96        96 
dram[5]:        96        96        96        96        96        96        96        96        96        96        96        96        96        96        96        96 
dram[6]:        96        96        96        96        96        96        96        96        96        96        96        96        96        96        96        96 
dram[7]:        96        96        96        96        96        96        96        96        96        96        96        96        96        96        96        96 
dram[8]:        64        64        64        64        64        64        64        64        64        64        64        64        64        64        64        64 
dram[9]:        64        64        64        64        64        64        64        64        64        64        64        64        64        64        64        64 
dram[10]:        64        64        64        64        64        64        64        64        64        64        64        64        64        64        64        64 
dram[11]:        64        64        64        64        64        64        64        64        64        64        64        64        64        64        64        64 
dram[12]:        64        64        64        64        64        64        64        64        64        64        64        64        64        64        64        64 
dram[13]:        64        64        64        64        64        64        64        64        64        64        64        64        64        64        64        64 
dram[14]:        64        64        64        64        64        64        64        64        64        64        64        64        64        64        64        64 
dram[15]:        64        64        64        64        64        64        64        64        64        64        64        64        64        64        64        64 
dram[16]:        64        64        64        64        64        64        64        64        64        64        64        64        64        64        64        64 
dram[17]:        64        64        64        64        64        64        64        64        64        64        64        64        64        64        64        64 
dram[18]:        64        64        64        64        64        64        64        64        64        64        64        64        64        64        64        64 
dram[19]:        64        64        64        64        64        64        64        64        64        64        64        64        64        64        64        64 
dram[20]:        64        64        64        64        64        64        64        64        64        64        64        64        64        64        64        64 
dram[21]:        64        64        64        64        64        64        64        64        64        64        64        64        64        64        64        64 
dram[22]:        64        64        64        64        64        64        64        64        64        64        64        64        64        64        64        64 
dram[23]:        64        64        64        64        64        64        64        64        64        64        64        64        64        64        64        64 
maximum service time to same row:
dram[0]:     19092     19400     23294     23705     27538     27539     31726     31734     19366     19460     23557     23638     27534     27903     31707     32078 
dram[1]:     19228     19415     23408     23431     27551     27748     31738     31940     19165     19358     23230     23540     27333     27685     31516     31874 
dram[2]:     19333     19354     23539     23482     27436     27655     31619     31830     19250     19331     23428     23508     27452     27731     31622     31913 
dram[3]:     19130     19394     23242     23578     27373     27386     31543     31559     19248     19414     23434     23431     27475     27892     31645     32071 
dram[4]:     19177     19397     23260     23452     27562     27590     31745     31776     19240     19412     23380     23570     27470     27674     31648     31844 
dram[5]:     19221     19422     23400     23596     28036     27607     32227     31782     19271     19398     23462     23584     27295     28112     31492     32297 
dram[6]:     19228     19400     23252     23586     27729     27618     31928     31793     19322     19388     23493     23370     27294     27583     31471     31776 
dram[7]:     19136     19394     23263     23578     27620     27418     31791     31614     19269     19343     23395     23512     27878     27599     32054     31778 
dram[8]:     20755     21256     24677     24550     28183     28268     32720     33168     20770     20941     24482     24965     28775     28169     32239     32217 
dram[9]:     20578     20304     24421     25034     28604     28421     32822     32712     20440     20574     24723     24544     28597     28021     32809     33348 
dram[10]:     20780     20930     24480     25003     28643     28087     32558     32837     20794     21213     24655     24541     28784     28107     31727     32425 
dram[11]:     20441     20555     24742     24527     28587     29230     32544     32627     20628     20323     24418     25044     28621     28046     32989     32537 
dram[12]:     20511     20175     24646     25025     28469     28885     32499     32941     20535     20300     24571     24376     28273     28406     32676     33414 
dram[13]:     20669     21094     24809     24468     27861     28601     32759     33602     20690     20835     24658     24548     28318     28498     32600     32194 
dram[14]:     20503     20300     24595     24372     28495     29620     32707     32837     20500     20172     24632     25039     28227     28397     32890     32804 
dram[15]:     20705     20585     24687     24965     28425     28691     32862     32969     20671     21096     24801     24400     28275     28509     31873     32267 
dram[16]:     20634     20721     24566     24563     28542     28979     32373     32480     20805     20774     24545     25110     28076     28025     32918     32353 
dram[17]:     20652     20863     24381     24391     28675     28523     32804     32639     20564     21047     24188     24269     28661     29170     32781     32206 
dram[18]:     20350     20795     24487     25094     28357     28658     32822     32283     20624     20716     24547     24550     27539     28248     32937     32303 
dram[19]:     20568     21035     24194     24279     28351     28453     32755     33404     20648     20878     24404     24384     28831     28358     32794     32238 
dram[20]:     20637     20842     24341     24244     28313     28738     32658     33063     20678     21083     24640     24375     28500     29256     32465     32585 
dram[21]:     20667     21240     24480     24449     28599     29429     32063     32791     20497     20692     24627     25064     28426     28004     32498     32691 
dram[22]:     20706     21101     24619     24392     28522     28664     32676     33797     20671     20861     24308     24361     28709     28629     32406     32585 
dram[23]:     20511     20751     24661     24766     28718     28785     32601     32887     20645     21292     24700     24446     27702     28074     32454     32691 
average row accesses per activate:
dram[0]: 87.489365 89.478264 96.000000 96.000000 96.000000 96.000000 96.000000 96.000000 96.000000 96.000000 96.000000 96.000000 96.000000 96.000000 96.000000 96.000000 
dram[1]: 87.489365 87.574471 96.000000 96.000000 96.000000 96.000000 96.000000 96.000000 93.793106 93.793106 96.000000 96.000000 96.000000 96.000000 96.000000 96.000000 
dram[2]: 86.568420 83.151512 96.000000 96.000000 96.000000 96.000000 96.000000 96.000000 96.000000 96.000000 96.000000 96.000000 96.000000 96.000000 96.000000 96.000000 
dram[3]: 83.918365 84.000000 96.000000 96.000000 96.000000 96.000000 96.000000 96.000000 93.793106 93.793106 96.000000 96.000000 96.000000 96.000000 96.000000 96.000000 
dram[4]: 89.391304 85.833336 96.000000 96.000000 96.000000 96.000000 96.000000 96.000000 93.793106 93.793106 96.000000 96.000000 96.000000 96.000000 96.000000 96.000000 
dram[5]: 89.391304 87.659576 96.000000 96.000000 96.000000 96.000000 96.000000 96.000000 93.793106 96.000000 96.000000 96.000000 96.000000 96.000000 96.000000 96.000000 
dram[6]: 80.627449 84.948456 96.000000 96.000000 96.000000 96.000000 96.000000 96.000000 96.000000 96.000000 96.000000 96.000000 96.000000 96.000000 96.000000 96.000000 
dram[7]: 89.391304 82.360001 96.000000 96.000000 96.000000 96.000000 96.000000 96.000000 93.793106 96.000000 96.000000 96.000000 96.000000 96.000000 96.000000 96.000000 
dram[8]: 47.627907 47.627907 48.188236 48.188236 48.372093 48.372093 47.627907 47.627907 46.712643 46.712643 48.188236 48.188236 48.188236 48.188236 47.811764 47.811764 
dram[9]: 46.545456 46.545456 48.188236 48.188236 48.372093 48.372093 47.627907 47.627907 47.811764 47.811764 48.188236 48.188236 48.188236 48.188236 47.811764 47.811764 
dram[10]: 47.627907 47.627907 48.188236 48.188236 48.372093 48.372093 47.627907 47.627907 47.255814 47.811764 48.188236 48.188236 48.188236 48.188236 47.811764 47.811764 
dram[11]: 47.627907 47.627907 48.188236 48.188236 48.372093 48.372093 47.627907 47.627907 46.712643 47.811764 48.188236 48.188236 48.188236 48.188236 47.811764 47.811764 
dram[12]: 47.627907 46.545456 48.188236 48.188236 48.372093 48.372093 47.627907 47.627907 47.811764 47.811764 48.188236 48.188236 48.188236 48.188236 47.811764 47.811764 
dram[13]: 47.627907 47.627907 48.188236 48.188236 48.372093 48.372093 47.627907 47.627907 47.811764 47.811764 48.188236 48.188236 48.188236 48.188236 47.811764 47.811764 
dram[14]: 47.627907 47.627907 48.188236 48.188236 48.372093 48.372093 47.627907 47.627907 47.811764 46.712643 48.188236 48.188236 48.188236 48.188236 47.811764 47.811764 
dram[15]: 46.545456 47.627907 48.188236 48.188236 48.372093 48.372093 47.627907 47.627907 47.811764 47.811764 48.188236 48.188236 48.188236 48.188236 47.811764 47.811764 
dram[16]: 42.804123 46.133335 47.811764 47.811764 47.627907 47.627907 48.372093 48.372093 48.188236 48.188236 47.811764 47.811764 47.811764 47.811764 48.188236 48.188236 
dram[17]: 46.133335 45.130436 47.811764 47.811764 47.627907 47.627907 48.372093 48.372093 47.627907 48.188236 47.811764 47.811764 47.811764 47.811764 48.188236 48.188236 
dram[18]: 43.250000 44.645161 47.811764 47.811764 47.627907 47.627907 48.372093 48.372093 48.188236 48.188236 47.811764 47.811764 47.811764 47.811764 48.188236 48.188236 
dram[19]: 44.645161 45.130436 47.811764 47.811764 47.627907 47.627907 48.372093 48.372093 48.188236 48.188236 47.811764 47.811764 47.811764 47.811764 48.188236 48.188236 
dram[20]: 44.170212 46.133335 47.811764 47.811764 47.627907 47.627907 48.372093 48.372093 48.188236 48.188236 47.811764 47.811764 47.811764 47.811764 48.188236 48.188236 
dram[21]: 43.250000 45.130436 47.811764 47.811764 47.627907 47.627907 48.372093 48.372093 48.188236 47.080460 47.811764 47.811764 47.811764 47.811764 48.188236 48.188236 
dram[22]: 45.626373 45.130436 47.811764 47.811764 47.627907 47.627907 48.372093 48.372093 48.188236 47.080460 47.811764 47.811764 47.811764 47.811764 48.188236 48.188236 
dram[23]: 43.250000 46.133335 47.811764 47.811764 47.627907 47.627907 48.372093 48.372093 48.188236 47.080460 47.811764 47.811764 47.811764 47.811764 48.188236 48.188236 
average row locality = 2097628/33085 = 63.401180
number of total memory accesses made:
dram[0]:         0         0         0         0         0         0         0         0         0         0         0         0         0         0         0         0 
dram[1]:         0         0         0         0         0         0         0         0         0         0         0         0         0         0         0         0 
dram[2]:         0         0         0         0         0         0         0         0         0         0         0         0         0         0         0         0 
dram[3]:         0         0         0         0         0         0         0         0         0         0         0         0         0         0         0         0 
dram[4]:         0         0         0         0         0         0         0         0         0         0         0         0         0         0         0         0 
dram[5]:         0         0         0         0         0         0         0         0         0         0         0         0         0         0         0         0 
dram[6]:         0         0         0         0         0         0         0         0         0         0         0         0         0         0         0         0 
dram[7]:         0         0         0         0         0         0         0         0         0         0         0         0         0         0         0         0 
dram[8]:         0         0         0         0         0         0         0         0         0         0         0         0         0         0         0         0 
dram[9]:         0         0         0         0         0         0         0         0         0         0         0         0         0         0         0         0 
dram[10]:         0         0         0         0         0         0         0         0         0         0         0         0         0         0         0         0 
dram[11]:         0         0         0         0         0         0         0         0         0         0         0         0         0         0         0         0 
dram[12]:         0         0         0         0         0         0         0         0         0         0         0         0         0         0         0         0 
dram[13]:         0         0         0         0         0         0         0         0         0         0         0         0         0         0         0         0 
dram[14]:         0         0         0         0         0         0         0         0         0         0         0         0         0         0         0         0 
dram[15]:         0         0         0         0         0         0         0         0         0         0         0         0         0         0         0         0 
dram[16]:         0         0         0         0         0         0         0         0         0         0         0         0         0         0         0         0 
dram[17]:         0         0         0         0         0         0         0         0         0         0         0         0         0         0         0         0 
dram[18]:         0         0         0         0         0         0         0         0         0         0         0         0         0         0         0         0 
dram[19]:         0         0         0         0         0         0         0         0         0         0         0         0         0         0         0         0 
dram[20]:         0         0         0         0         0         0         0         0         0         0         0         0         0         0         0         0 
dram[21]:         0         0         0         0         0         0         0         0         0         0         0         0         0         0         0         0 
dram[22]:         0         0         0         0         0         0         0         0         0         0         0         0         0         0         0         0 
dram[23]:         0         0         0         0         0         0         0         0         0         0         0         0         0         0         0         0 
total accesses: 0
min_bank_accesses = 0!
min_chip_accesses = 0!
number of total read accesses:
dram[0]:      8256      8256      8256      8256      8232      8224      8160      8160      8160      8160      8160      8160      8160      8160      8160      8160 
dram[1]:      8256      8256      8256      8256      8232      8224      8160      8160      8160      8160      8160      8160      8160      8160      8160      8160 
dram[2]:      8256      8256      8256      8256      8232      8224      8160      8160      8160      8160      8160      8160      8160      8160      8160      8160 
dram[3]:      8256      8256      8256      8256      8232      8224      8160      8160      8160      8160      8160      8160      8160      8160      8160      8160 
dram[4]:      8256      8256      8256      8256      8240      8224      8160      8160      8160      8160      8160      8160      8160      8160      8160      8160 
dram[5]:      8256      8256      8256      8256      8240      8224      8160      8160      8160      8160      8160      8160      8160      8160      8160      8160 
dram[6]:      8256      8256      8256      8256      8240      8224      8160      8160      8160      8160      8160      8160      8160      8160      8160      8160 
dram[7]:      8256      8256      8256      8256      8236      8224      8160      8160      8160      8160      8160      8160      8160      8160      8160      8160 
dram[8]:      4096      4096      4160      4160      4160      4160      4032      4032      4032      4032      4128      4128      4128      4128      4032      4032 
dram[9]:      4096      4096      4160      4160      4160      4160      4032      4032      4032      4032      4128      4128      4128      4128      4032      4032 
dram[10]:      4096      4096      4160      4160      4160      4160      4032      4032      4032      4032      4128      4128      4128      4128      4032      4032 
dram[11]:      4096      4096      4160      4160      4160      4160      4032      4032      4032      4032      4128      4128      4128      4128      4032      4032 
dram[12]:      4096      4096      4160      4160      4160      4160      4032      4032      4032      4032      4128      4128      4128      4128      4032      4032 
dram[13]:      4096      4096      4160      4160      4160      4160      4032      4032      4032      4032      4128      4128      4128      4128      4032      4032 
dram[14]:      4096      4096      4160      4160      4160      4160      4032      4032      4032      4032      4128      4128      4128      4128      4032      4032 
dram[15]:      4096      4096      4160      4160      4160      4160      4032      4032      4032      4032      4128      4128      4128      4128      4032      4032 
dram[16]:      4160      4160      4096      4096      4088      4088      4128      4128      4128      4128      4032      4032      4032      4032      4128      4128 
dram[17]:      4160      4160      4096      4096      4088      4088      4128      4128      4128      4128      4032      4032      4032      4032      4128      4128 
dram[18]:      4160      4160      4096      4096      4088      4088      4128      4128      4128      4128      4032      4032      4032      4032      4128      4128 
dram[19]:      4160      4160      4096      4096      4088      4088      4128      4128      4128      4128      4032      4032      4032      4032      4128      4128 
dram[20]:      4160      4160      4096      4096      4088      4088      4128      4128      4128      4128      4032      4032      4032      4032      4128      4128 
dram[21]:      4160      4160      4096      4096      4088      4088      4128      4128      4128      4128      4032      4032      4032      4032      4128      4128 
dram[22]:      4160      4160      4096      4096      4088      4088      4128      4128      4128      4128      4032      4032      4032      4032      4128      4128 
dram[23]:      4160      4160      4096      4096      4088      4088      4128      4128      4128      4128      4032      4032      4032      4032      4128      4128 
total dram reads = 2097628
bank skew: 8256/4032 = 2.05
chip skew: 131088/65536 = 2.00
number of total write accesses:
dram[0]:         0         0         0         0         0         0         0         0         0         0         0         0         0         0         0         0 
dram[1]:         0         0         0         0         0         0         0         0         0         0         0         0         0         0         0         0 
dram[2]:         0         0         0         0         0         0         0         0         0         0         0         0         0         0         0         0 
dram[3]:         0         0         0         0         0         0         0         0         0         0         0         0         0         0         0         0 
dram[4]:         0         0         0         0         0         0         0         0         0         0         0         0         0         0         0         0 
dram[5]:         0         0         0         0         0         0         0         0         0         0         0         0         0         0         0         0 
dram[6]:         0         0         0         0         0         0         0         0         0         0         0         0         0         0         0         0 
dram[7]:         0         0         0         0         0         0         0         0         0         0         0         0         0         0         0         0 
dram[8]:         0         0         0         0         0         0         0         0         0         0         0         0         0         0         0         0 
dram[9]:         0         0         0         0         0         0         0         0         0         0         0         0         0         0         0         0 
dram[10]:         0         0         0         0         0         0         0         0         0         0         0         0         0         0         0         0 
dram[11]:         0         0         0         0         0         0         0         0         0         0         0         0         0         0         0         0 
dram[12]:         0         0         0         0         0         0         0         0         0         0         0         0         0         0         0         0 
dram[13]:         0         0         0         0         0         0         0         0         0         0         0         0         0         0         0         0 
dram[14]:         0         0         0         0         0         0         0         0         0         0         0         0         0         0         0         0 
dram[15]:         0         0         0         0         0         0         0         0         0         0         0         0         0         0         0         0 
dram[16]:         0         0         0         0         0         0         0         0         0         0         0         0         0         0         0         0 
dram[17]:         0         0         0         0         0         0         0         0         0         0         0         0         0         0         0         0 
dram[18]:         0         0         0         0         0         0         0         0         0         0         0         0         0         0         0         0 
dram[19]:         0         0         0         0         0         0         0         0         0         0         0         0         0         0         0         0 
dram[20]:         0         0         0         0         0         0         0         0         0         0         0         0         0         0         0         0 
dram[21]:         0         0         0         0         0         0         0         0         0         0         0         0         0         0         0         0 
dram[22]:         0         0         0         0         0         0         0         0         0         0         0         0         0         0         0         0 
dram[23]:         0         0         0         0         0         0         0         0         0         0         0         0         0         0         0         0 
total dram writes = 0
min_bank_accesses = 0!
min_chip_accesses = 0!
average mf latency per bank:
dram[0]:        322       321       322       321      1839      3350       322       321       322       321       322       321       322       321       322       321
dram[1]:        322       321       322       321      1840      3350       322       321       322       321       321       321       321       321       322       321
dram[2]:        322       322       322       321      1840      3347       322       321       322       321       322       321       322       321       322       321
dram[3]:        321       321       321       321      1841      3349       322       321       322       321       322       321       322       321       322       322
dram[4]:        322       321       322       321      1840      3350       322       321       321       321       321       320       322       321       322       321
dram[5]:        322       321       321       321      1841      3351       322       321       322       321       322       321       322       321       322       321
dram[6]:        322       321       321       320      1839      3350       322       321       322       321       322       320       322       321       322       321
dram[7]:        322       321       322       321      1840      3350       322       321       321       321       321       321       321       321       322       321
dram[8]:        325       323       324       323       325       323       325       323       324       323       324       322       324       322       325       323
dram[9]:        325       323       324       323       324       323       324       323       325       323       325       322       324       322       325       323
dram[10]:        324       323       324       322       324       322       324       323       325       323       324       322       325       322       325       323
dram[11]:        325       323       325       322       324       323       325       323       324       323       324       323       324       323       325       323
dram[12]:        324       323       325       322       324       323       325       323       325       323       325       322       325       322       325       323
dram[13]:        325       323       324       322       325       322       325       323       324       323       324       322       324       322       325       323
dram[14]:        325       323       325       322       324       322       325       323       324       323       324       322       324       323       325       323
dram[15]:        324       323       324       322       324       323       324       323       325       323       324       322       325       323       325       323
dram[16]:        324       323       325       323      1848      1853       325       323       324       323       325       322       325       323       324       323
dram[17]:        324       323       325       323      1848      1856       324       323       324       322       325       322       325       323       325       323
dram[18]:        324       323       324       323      1847      1853       324       323       324       322       325       323       325       322       325       323
dram[19]:        325       322       325       323      1849      1854       325       323       324       323       325       323       324       323       325       323
dram[20]:        324       322       324       323      1850      1853       324       323       325       322       325       323       325       322       325       323
dram[21]:        325       323       325       323      1849      1853       325       323       324       323       324       323       324       323       324       323
dram[22]:        325       323       325       322      1849      1852       325       323       324       322       324       323       324       323       324       323
dram[23]:        324       323       324       323      1848      1853       324       323       324       323       325       323       325       322       325       322
maximum mf latency per bank:
dram[0]:        411       441       393       455       397       425       370       368       366       372       366       396       404       404       366       362
dram[1]:        410       407       398       391       385       373       374       366       394       369       363       389       383       411       372       367
dram[2]:        417       405       365       384       393       458       363       368       434       418       446       434       368       382       369       383
dram[3]:        404       407       423       368       362       366       378       401       434       444       420       426       372       363       413       409
dram[4]:        421       441       371       360       420       370       369       368       380       363       368       374       407       402       400       411
dram[5]:        404       440       423       403       425       428       379       373       394       362       378       388       389       365       370       363
dram[6]:        438       416       362       366       368       397       376       374       362       366       402       370       395       385       372       414
dram[7]:        423       415       401       380       404       365       407       372       395       372       379       376       447       408       380       440
dram[8]:        410       399       368       366       370       365       367       363       366       363       363       362       375       365       368       411
dram[9]:        393       404       366       366       368       370       372       362       366       365       368       361       366       364       366       408
dram[10]:        411       403       372       365       364       365       373       371       360       366       364       368       377       360       373       366
dram[11]:        404       407       362       361       374       378       369       368       364       363       366       361       367       363       365       379
dram[12]:        419       409       370       365       369       364       365       361       369       365       363       361       367       364       392       367
dram[13]:        402       417       372       360       379       359       364       368       363       362       369       363       376       359       370       370
dram[14]:        420       419       367       361       369       360       363       370       367       373       365       367       365       365       386       361
dram[15]:        413       418       364       363       370       362       370       362       366       365       365       362       375       361       369       411
dram[16]:        421       387       366       412       431       403       373       366       363       359       367       369       377       418       366       360
dram[17]:        442       403       368       366       374       369       373       365       361       366       366       362       365       367       373       363
dram[18]:        410       399       392       386       369       373       368       359       366       364       377       400       372       362       416       368
dram[19]:        396       454       364       391       368       360       376       370       365       359       362       366       372       366       411       364
dram[20]:        371       388       392       361       455       362       363       365       370       371       367       396       401       360       372       363
dram[21]:        405       398       365       363       438       374       369       368       412       393       365       367       376       366       367       412
dram[22]:        369       374       367       362       366       364       381       368       364       362       421       386       365       371       362       363
dram[23]:        371       371       365       365       433       445       366       370       392       451       369       363       368       360       394       363
Memory Partition 0: 
Cache L2_bank_000:
MSHR contents

Cache L2_bank_001:
MSHR contents

In Dram Latency Queue (total = 0): 
DRAM[0]: 16 bks, busW=16 BL=2 CL=12, tRRD=3 tCCD=1, tRCD=12 tRAS=28 tRP=12 tRC=40
n_cmd=1017038 n_nop=883450 n_act=1380 n_pre=1364 n_ref_event=0 n_req=131080 n_rd=131080 n_rd_L2_A=0 n_write=0 n_wr_bk=0 bw_util=0.1289
n_activity=411821 dram_eff=0.3183
bk0: 8224a 1008426i bk1: 8232a 1008204i bk2: 8160a 1008670i bk3: 8160a 1008405i bk4: 8256a 1008594i bk5: 8256a 1008334i bk6: 8256a 1008594i bk7: 8256a 1008379i bk8: 8160a 1008689i bk9: 8160a 1008444i bk10: 8160a 1008722i bk11: 8160a 1008493i bk12: 8160a 1008584i bk13: 8160a 1008371i bk14: 8160a 1008630i bk15: 8160a 1008399i 

------------------------------------------------------------------------

Row_Buffer_Locality = 0.989472
Row_Buffer_Locality_read = 0.989472
Row_Buffer_Locality_write = -nan
Bank_Level_Parallism = 1.057314
Bank_Level_Parallism_Col = 1.049229
Bank_Level_Parallism_Ready = 1.019225
write_to_read_ratio_blp_rw_average = 0.000000
GrpLevelPara = 1.048880 

BW Util details:
bwutil = 0.128884 
total_CMD = 1017038 
util_bw = 131080 
Wasted_Col = 108340 
Wasted_Row = 13816 
Idle = 763802 

BW Util Bottlenecks: 
RCDc_limit = 15476 
RCDWRc_limit = 0 
WTRc_limit = 0 
RTWc_limit = 0 
CCDLc_limit = 93853 
rwq = 0 
CCDLc_limit_alone = 93853 
WTRc_limit_alone = 0 
RTWc_limit_alone = 0 

Commands details: 
total_CMD = 1017038 
n_nop = 883450 
Read = 131080 
Write = 0 
L2_Alloc = 0 
L2_WB = 0 
n_act = 1380 
n_pre = 1364 
n_ref = 0 
n_req = 131080 
total_req = 131080 

Dual Bus Interface Util: 
issued_total_row = 2744 
issued_total_col = 131080 
Row_Bus_Util =  0.002698 
CoL_Bus_Util = 0.128884 
Either_Row_CoL_Bus_Util = 0.131350 
Issued_on_Two_Bus_Simul_Util = 0.000232 
issued_two_Eff = 0.001767 
queue_avg = 0.452507 


dram_util_bins: 0 0 0 0 0 0 0 0 0 0
dram_eff_bins: 0 0 0 0 0 0 0 0 0 0
mrqq: max=21 avg=0.452507
Memory Partition 1: 
Cache L2_bank_002:
MSHR contents

Cache L2_bank_003:
MSHR contents

In Dram Latency Queue (total = 0): 
DRAM[1]: 16 bks, busW=16 BL=2 CL=12, tRRD=3 tCCD=1, tRCD=12 tRAS=28 tRP=12 tRC=40
n_cmd=1017038 n_nop=883420 n_act=1386 n_pre=1370 n_ref_event=0 n_req=131080 n_rd=131080 n_rd_L2_A=0 n_write=0 n_wr_bk=0 bw_util=0.1289
n_activity=413320 dram_eff=0.3171
bk0: 8224a 1008398i bk1: 8232a 1008183i bk2: 8160a 1008665i bk3: 8160a 1008433i bk4: 8256a 1008592i bk5: 8256a 1008395i bk6: 8256a 1008571i bk7: 8256a 1008316i bk8: 8160a 1008552i bk9: 8160a 1008351i bk10: 8160a 1008648i bk11: 8160a 1008406i bk12: 8160a 1008614i bk13: 8160a 1008351i bk14: 8160a 1008648i bk15: 8160a 1008387i 

------------------------------------------------------------------------

Row_Buffer_Locality = 0.989426
Row_Buffer_Locality_read = 0.989426
Row_Buffer_Locality_write = -nan
Bank_Level_Parallism = 1.056555
Bank_Level_Parallism_Col = 1.049270
Bank_Level_Parallism_Ready = 1.018386
[...]
write_to_read_ratio_blp_rw_average = 0.000000
GrpLevelPara = 1.355556 

BW Util details:
bwutil = 0.072212 
total_CMD = 1812104 
util_bw = 130856 
Wasted_Col = 513585 
Wasted_Row = 189918 
Idle = 977745 

BW Util Bottlenecks: 
RCDc_limit = 728363 
RCDWRc_limit = 0 
WTRc_limit = 0 
RTWc_limit = 0 
CCDLc_limit = 66730 
rwq = 0 
CCDLc_limit_alone = 66730 
WTRc_limit_alone = 0 
RTWc_limit_alone = 0 

Commands details: 
total_CMD = 1812104 
n_nop = 1555956 
Read = 130856 
Write = 0 
L2_Alloc = 0 
L2_WB = 0 
n_act = 66637 
n_pre = 66621 
n_ref = 0 
n_req = 130860 
total_req = 130856 

Dual Bus Interface Util: 
issued_total_row = 133258 
issued_total_col = 130856 
Row_Bus_Util =  0.073538 
CoL_Bus_Util = 0.072212 
Either_Row_CoL_Bus_Util = 0.141354 
Issued_on_Two_Bus_Simul_Util = 0.004396 
issued_two_Eff = 0.031099 
queue_avg = 0.269887 


dram_util_bins: 0 0 0 0 0 0 0 0 0 0
dram_eff_bins: 0 0 0 0 0 0 0 0 0 0
mrqq: max=55 avg=0.269887
Memory Partition 20: 
Cache L2_bank_040:
MSHR contents

Cache L2_bank_041:
MSHR contents

In Dram Latency Queue (total = 0): 
DRAM[20]: 16 bks, busW=16 BL=2 CL=12, tRRD=3 tCCD=1, tRCD=12 tRAS=28 tRP=12 tRC=40
n_cmd=1812104 n_nop=1555812 n_act=66649 n_pre=66633 n_ref_event=0 n_req=130872 n_rd=130868 n_rd_L2_A=0 n_write=0 n_wr_bk=0 bw_util=0.07222
n_activity=1006365 dram_eff=0.13
bk0: 8272a 1695439i bk1: 8264a 1694950i bk2: 8116a 1697532i bk3: 8128a 1696227i bk4: 8176a 1696230i bk5: 8172a 1696413i bk6: 8288a 1694730i bk7: 8304a 1694765i bk8: 8176a 1696455i bk9: 8168a 1696128i bk10: 8108a 1697751i bk11: 8120a 1697462i bk12: 8104a 1698019i bk13: 8108a 1697385i bk14: 8184a 1695716i bk15: 8180a 1696296i 

------------------------------------------------------------------------

Row_Buffer_Locality = 0.490716
Row_Buffer_Locality_read = 0.490716
Row_Buffer_Locality_write = -nan
Bank_Level_Parallism = 2.372777
Bank_Level_Parallism_Col = 1.470980
Bank_Level_Parallism_Ready = 1.004776
write_to_read_ratio_blp_rw_average = 0.000000
GrpLevelPara = 1.354794 

BW Util details:
bwutil = 0.072219 
total_CMD = 1812104 
util_bw = 130868 
Wasted_Col = 514764 
Wasted_Row = 190112 
Idle = 976360 

BW Util Bottlenecks: 
RCDc_limit = 728633 
RCDWRc_limit = 0 
WTRc_limit = 0 
RTWc_limit = 0 
CCDLc_limit = 66708 
rwq = 0 
CCDLc_limit_alone = 66708 
WTRc_limit_alone = 0 
RTWc_limit_alone = 0 

Commands details: 
total_CMD = 1812104 
n_nop = 1555812 
Read = 130868 
Write = 0 
L2_Alloc = 0 
L2_WB = 0 
n_act = 66649 
n_pre = 66633 
n_ref = 0 
n_req = 130872 
total_req = 130868 

Dual Bus Interface Util: 
issued_total_row = 133282 
issued_total_col = 130868 
Row_Bus_Util =  0.073551 
CoL_Bus_Util = 0.072219 
Either_Row_CoL_Bus_Util = 0.141433 
Issued_on_Two_Bus_Simul_Util = 0.004336 
issued_two_Eff = 0.030660 
queue_avg = 0.272046 


dram_util_bins: 0 0 0 0 0 0 0 0 0 0
dram_eff_bins: 0 0 0 0 0 0 0 0 0 0
mrqq: max=56 avg=0.272046
Memory Partition 21: 
Cache L2_bank_042:
MSHR contents

Cache L2_bank_043:
MSHR contents

In Dram Latency Queue (total = 0): 
DRAM[21]: 16 bks, busW=16 BL=2 CL=12, tRRD=3 tCCD=1, tRCD=12 tRAS=28 tRP=12 tRC=40
n_cmd=1812104 n_nop=1555916 n_act=66631 n_pre=66615 n_ref_event=0 n_req=130852 n_rd=130848 n_rd_L2_A=0 n_write=0 n_wr_bk=0 bw_util=0.07221
n_activity=1005564 dram_eff=0.1301
bk0: 8268a 1695672i bk1: 8264a 1694527i bk2: 8120a 1697482i bk3: 8128a 1697337i bk4: 8176a 1696136i bk5: 8172a 1695997i bk6: 8288a 1695043i bk7: 8300a 1694460i bk8: 8168a 1695580i bk9: 8164a 1695922i bk10: 8108a 1697243i bk11: 8112a 1696633i bk12: 8108a 1697296i bk13: 8112a 1697729i bk14: 8180a 1696383i bk15: 8180a 1696253i 

------------------------------------------------------------------------

Row_Buffer_Locality = 0.490776
Row_Buffer_Locality_read = 0.490776
Row_Buffer_Locality_write = -nan
Bank_Level_Parallism = 2.381487
Bank_Level_Parallism_Col = 1.474549
Bank_Level_Parallism_Ready = 1.005250
write_to_read_ratio_blp_rw_average = 0.000000
GrpLevelPara = 1.356404 

BW Util details:
bwutil = 0.072208 
total_CMD = 1812104 
util_bw = 130848 
Wasted_Col = 513051 
Wasted_Row = 189538 
Idle = 978667 

BW Util Bottlenecks: 
RCDc_limit = 728028 
RCDWRc_limit = 0 
WTRc_limit = 0 
RTWc_limit = 0 
CCDLc_limit = 66716 
rwq = 0 
CCDLc_limit_alone = 66716 
WTRc_limit_alone = 0 
RTWc_limit_alone = 0 

Commands details: 
total_CMD = 1812104 
n_nop = 1555916 
Read = 130848 
Write = 0 
L2_Alloc = 0 
L2_WB = 0 
n_act = 66631 
n_pre = 66615 
n_ref = 0 
n_req = 130852 
total_req = 130848 

Dual Bus Interface Util: 
issued_total_row = 133246 
issued_total_col = 130848 
Row_Bus_Util =  0.073531 
CoL_Bus_Util = 0.072208 
Either_Row_CoL_Bus_Util = 0.141376 
Issued_on_Two_Bus_Simul_Util = 0.004363 
issued_two_Eff = 0.030860 
queue_avg = 0.271198 


dram_util_bins: 0 0 0 0 0 0 0 0 0 0
dram_eff_bins: 0 0 0 0 0 0 0 0 0 0
mrqq: max=54 avg=0.271198
Memory Partition 22: 
Cache L2_bank_044:
MSHR contents

Cache L2_bank_045:
MSHR contents

In Dram Latency Queue (total = 0): 
DRAM[22]: 16 bks, busW=16 BL=2 CL=12, tRRD=3 tCCD=1, tRCD=12 tRAS=28 tRP=12 tRC=40
n_cmd=1812104 n_nop=1555622 n_act=66634 n_pre=66618 n_ref_event=0 n_req=130860 n_rd=130856 n_rd_L2_A=0 n_write=0 n_wr_bk=0 bw_util=0.07221
n_activity=1006014 dram_eff=0.1301
bk0: 8260a 1695872i bk1: 8276a 1694653i bk2: 8120a 1697100i bk3: 8128a 1696764i bk4: 8168a 1696834i bk5: 8160a 1697196i bk6: 8300a 1694433i bk7: 8304a 1693919i bk8: 8172a 1696663i bk9: 8168a 1697134i bk10: 8104a 1698153i bk11: 8120a 1697081i bk12: 8112a 1697792i bk13: 8112a 1696270i bk14: 8168a 1696013i bk15: 8184a 1696166i 

------------------------------------------------------------------------

Row_Buffer_Locality = 0.490784
Row_Buffer_Locality_read = 0.490784
Row_Buffer_Locality_write = -nan
Bank_Level_Parallism = 2.373033
Bank_Level_Parallism_Col = 1.470563
Bank_Level_Parallism_Ready = 1.005724
write_to_read_ratio_blp_rw_average = 0.000000
GrpLevelPara = 1.352137 

BW Util details:
bwutil = 0.072212 
total_CMD = 1812104 
util_bw = 130856 
Wasted_Col = 514974 
Wasted_Row = 189589 
Idle = 976685 

BW Util Bottlenecks: 
RCDc_limit = 728882 
RCDWRc_limit = 0 
WTRc_limit = 0 
RTWc_limit = 0 
CCDLc_limit = 66592 
rwq = 0 
CCDLc_limit_alone = 66592 
WTRc_limit_alone = 0 
RTWc_limit_alone = 0 

Commands details: 
total_CMD = 1812104 
n_nop = 1555622 
Read = 130856 
Write = 0 
L2_Alloc = 0 
L2_WB = 0 
n_act = 66634 
n_pre = 66618 
n_ref = 0 
n_req = 130860 
total_req = 130856 

Dual Bus Interface Util: 
issued_total_row = 133252 
issued_total_col = 130856 
Row_Bus_Util =  0.073534 
CoL_Bus_Util = 0.072212 
Either_Row_CoL_Bus_Util = 0.141538 
Issued_on_Two_Bus_Simul_Util = 0.004208 
issued_two_Eff = 0.029733 
queue_avg = 0.269883 


dram_util_bins: 0 0 0 0 0 0 0 0 0 0
dram_eff_bins: 0 0 0 0 0 0 0 0 0 0
mrqq: max=52 avg=0.269883
Memory Partition 23: 
Cache L2_bank_046:
MSHR contents

Cache L2_bank_047:
MSHR contents

In Dram Latency Queue (total = 0): 
DRAM[23]: 16 bks, busW=16 BL=2 CL=12, tRRD=3 tCCD=1, tRCD=12 tRAS=28 tRP=12 tRC=40
n_cmd=1812104 n_nop=1555912 n_act=66612 n_pre=66596 n_ref_event=0 n_req=130848 n_rd=130844 n_rd_L2_A=0 n_write=0 n_wr_bk=0 bw_util=0.07221
n_activity=1006629 dram_eff=0.13
bk0: 8256a 1694927i bk1: 8264a 1695469i bk2: 8120a 1696510i bk3: 8120a 1697312i bk4: 8168a 1696493i bk5: 8164a 1696661i bk6: 8300a 1694449i bk7: 8300a 1693737i bk8: 8172a 1696828i bk9: 8168a 1695660i bk10: 8116a 1696577i bk11: 8120a 1697120i bk12: 8112a 1696734i bk13: 8112a 1696783i bk14: 8172a 1696662i bk15: 8180a 1696291i 

------------------------------------------------------------------------

Row_Buffer_Locality = 0.490905
Row_Buffer_Locality_read = 0.490905
Row_Buffer_Locality_write = -nan
Bank_Level_Parallism = 2.380678
Bank_Level_Parallism_Col = 1.472476
Bank_Level_Parallism_Ready = 1.004991
write_to_read_ratio_blp_rw_average = 0.000000
GrpLevelPara = 1.354868 

BW Util details:
bwutil = 0.072206 
total_CMD = 1812104 
util_bw = 130844 
Wasted_Col = 513792 
Wasted_Row = 189704 
Idle = 977764 

BW Util Bottlenecks: 
RCDc_limit = 728077 
RCDWRc_limit = 0 
WTRc_limit = 0 
RTWc_limit = 0 
CCDLc_limit = 66564 
rwq = 0 
CCDLc_limit_alone = 66564 
WTRc_limit_alone = 0 
RTWc_limit_alone = 0 

Commands details: 
total_CMD = 1812104 
n_nop = 1555912 
Read = 130844 
Write = 0 
L2_Alloc = 0 
L2_WB = 0 
n_act = 66612 
n_pre = 66596 
n_ref = 0 
n_req = 130848 
total_req = 130844 

Dual Bus Interface Util: 
issued_total_row = 133208 
issued_total_col = 130844 
Row_Bus_Util =  0.073510 
CoL_Bus_Util = 0.072206 
Either_Row_CoL_Bus_Util = 0.141378 
Issued_on_Two_Bus_Simul_Util = 0.004337 
issued_two_Eff = 0.030680 
queue_avg = 0.273023 


dram_util_bins: 0 0 0 0 0 0 0 0 0 0
dram_eff_bins: 0 0 0 0 0 0 0 0 0 0
mrqq: max=59 avg=0.273023

========= L2 cache stats =========
L2_cache_bank[0]: Access = 145375, Miss = 131256, Miss_rate = 0.903, Pending_hits = 0, Reservation_fails = 0
L2_cache_bank[1]: Access = 440603, Miss = 130788, Miss_rate = 0.297, Pending_hits = 101, Reservation_fails = 2284
L2_cache_bank[2]: Access = 145362, Miss = 131264, Miss_rate = 0.903, Pending_hits = 0, Reservation_fails = 0
L2_cache_bank[3]: Access = 440590, Miss = 130780, Miss_rate = 0.297, Pending_hits = 106, Reservation_fails = 2302
L2_cache_bank[4]: Access = 145192, Miss = 131256, Miss_rate = 0.904, Pending_hits = 0, Reservation_fails = 0
L2_cache_bank[5]: Access = 440658, Miss = 130800, Miss_rate = 0.297, Pending_hits = 98, Reservation_fails = 2484
L2_cache_bank[6]: Access = 145254, Miss = 131232, Miss_rate = 0.903, Pending_hits = 0, Reservation_fails = 0
L2_cache_bank[7]: Access = 440692, Miss = 130756, Miss_rate = 0.297, Pending_hits = 98, Reservation_fails = 2329
L2_cache_bank[8]: Access = 145283, Miss = 131256, Miss_rate = 0.903, Pending_hits = 0, Reservation_fails = 0
L2_cache_bank[9]: Access = 440874, Miss = 130776, Miss_rate = 0.297, Pending_hits = 129, Reservation_fails = 3319
L2_cache_bank[10]: Access = 145200, Miss = 131280, Miss_rate = 0.904, Pending_hits = 0, Reservation_fails = 0
L2_cache_bank[11]: Access = 440823, Miss = 130800, Miss_rate = 0.297, Pending_hits = 122, Reservation_fails = 3261
L2_cache_bank[12]: Access = 145169, Miss = 131240, Miss_rate = 0.904, Pending_hits = 0, Reservation_fails = 0
L2_cache_bank[13]: Access = 440665, Miss = 130784, Miss_rate = 0.297, Pending_hits = 120, Reservation_fails = 2776
L2_cache_bank[14]: Access = 145254, Miss = 131264, Miss_rate = 0.904, Pending_hits = 0, Reservation_fails = 0
L2_cache_bank[15]: Access = 440673, Miss = 130772, Miss_rate = 0.297, Pending_hits = 112, Reservation_fails = 2510
L2_cache_bank[16]: Access = 72682, Miss = 65508, Miss_rate = 0.901, Pending_hits = 0, Reservation_fails = 0
L2_cache_bank[17]: Access = 138417, Miss = 65304, Miss_rate = 0.472, Pending_hits = 12, Reservation_fails = 0
L2_cache_bank[18]: Access = 72608, Miss = 65516, Miss_rate = 0.902, Pending_hits = 0, Reservation_fails = 0
L2_cache_bank[19]: Access = 138370, Miss = 65300, Miss_rate = 0.472, Pending_hits = 8, Reservation_fails = 0
L2_cache_bank[20]: Access = 72653, Miss = 65516, Miss_rate = 0.902, Pending_hits = 0, Reservation_fails = 0
L2_cache_bank[21]: Access = 138307, Miss = 65284, Miss_rate = 0.472, Pending_hits = 2, Reservation_fails = 0
L2_cache_bank[22]: Access = 72661, Miss = 65508, Miss_rate = 0.902, Pending_hits = 0, Reservation_fails = 0
L2_cache_bank[23]: Access = 138297, Miss = 65300, Miss_rate = 0.472, Pending_hits = 9, Reservation_fails = 0
L2_cache_bank[24]: Access = 72687, Miss = 65512, Miss_rate = 0.901, Pending_hits = 0, Reservation_fails = 0
L2_cache_bank[25]: Access = 138271, Miss = 65296, Miss_rate = 0.472, Pending_hits = 10, Reservation_fails = 0
L2_cache_bank[26]: Access = 72696, Miss = 65512, Miss_rate = 0.901, Pending_hits = 0, Reservation_fails = 0
L2_cache_bank[27]: Access = 138290, Miss = 65300, Miss_rate = 0.472, Pending_hits = 9, Reservation_fails = 0
L2_cache_bank[28]: Access = 72637, Miss = 65516, Miss_rate = 0.902, Pending_hits = 0, Reservation_fails = 0
L2_cache_bank[29]: Access = 138347, Miss = 65284, Miss_rate = 0.472, Pending_hits = 5, Reservation_fails = 0
L2_cache_bank[30]: Access = 72668, Miss = 65500, Miss_rate = 0.901, Pending_hits = 0, Reservation_fails = 0
L2_cache_bank[31]: Access = 138394, Miss = 65288, Miss_rate = 0.472, Pending_hits = 15, Reservation_fails = 0
L2_cache_bank[32]: Access = 72650, Miss = 65508, Miss_rate = 0.902, Pending_hits = 0, Reservation_fails = 0
L2_cache_bank[33]: Access = 237060, Miss = 65356, Miss_rate = 0.276, Pending_hits = 74, Reservation_fails = 2199
L2_cache_bank[34]: Access = 72610, Miss = 65516, Miss_rate = 0.902, Pending_hits = 0, Reservation_fails = 0
L2_cache_bank[35]: Access = 237017, Miss = 65364, Miss_rate = 0.276, Pending_hits = 73, Reservation_fails = 2051
L2_cache_bank[36]: Access = 72575, Miss = 65516, Miss_rate = 0.903, Pending_hits = 0, Reservation_fails = 0
L2_cache_bank[37]: Access = 236949, Miss = 65360, Miss_rate = 0.276, Pending_hits = 73, Reservation_fails = 2159
L2_cache_bank[38]: Access = 72645, Miss = 65512, Miss_rate = 0.902, Pending_hits = 0, Reservation_fails = 0
L2_cache_bank[39]: Access = 236957, Miss = 65368, Miss_rate = 0.276, Pending_hits = 72, Reservation_fails = 1715
L2_cache_bank[40]: Access = 72711, Miss = 65512, Miss_rate = 0.901, Pending_hits = 0, Reservation_fails = 0
L2_cache_bank[41]: Access = 236933, Miss = 65380, Miss_rate = 0.276, Pending_hits = 79, Reservation_fails = 1732
L2_cache_bank[42]: Access = 72680, Miss = 65508, Miss_rate = 0.901, Pending_hits = 0, Reservation_fails = 0
L2_cache_bank[43]: Access = 236967, Miss = 65364, Miss_rate = 0.276, Pending_hits = 77, Reservation_fails = 1851
L2_cache_bank[44]: Access = 72624, Miss = 65516, Miss_rate = 0.902, Pending_hits = 0, Reservation_fails = 0
L2_cache_bank[45]: Access = 236909, Miss = 65364, Miss_rate = 0.276, Pending_hits = 72, Reservation_fails = 1756
L2_cache_bank[46]: Access = 72618, Miss = 65500, Miss_rate = 0.902, Pending_hits = 0, Reservation_fails = 0
L2_cache_bank[47]: Access = 236985, Miss = 65368, Miss_rate = 0.276, Pending_hits = 81, Reservation_fails = 1895
L2_total_cache_accesses = 8852542
L2_total_cache_misses = 4189760
L2_total_cache_miss_rate = 0.4733
L2_total_cache_pending_hits = 1557
L2_total_cache_reservation_fails = 36623
L2_total_cache_breakdown:
	L2_cache_stats_breakdown[GLOBAL_ACC_R][HIT] = 466409
	L2_cache_stats_breakdown[GLOBAL_ACC_R][HIT_RESERVED] = 1557
	L2_cache_stats_breakdown[GLOBAL_ACC_R][MISS] = 1047312
	L2_cache_stats_breakdown[GLOBAL_ACC_R][RESERVATION_FAIL] = 36623
	L2_cache_stats_breakdown[GLOBAL_ACC_R][SECTOR_MISS] = 3141936
	L2_cache_stats_breakdown[GLOBAL_ACC_R][MSHR_HIT] = 1557
	L2_cache_stats_breakdown[LOCAL_ACC_R][HIT] = 0
	L2_cache_stats_breakdown[LOCAL_ACC_R][HIT_RESERVED] = 0
	L2_cache_stats_breakdown[LOCAL_ACC_R][MISS] = 0
	L2_cache_stats_breakdown[LOCAL_ACC_R][RESERVATION_FAIL] = 0
	L2_cache_stats_breakdown[LOCAL_ACC_R][SECTOR_MISS] = 0
	L2_cache_stats_breakdown[LOCAL_ACC_R][MSHR_HIT] = 0
	L2_cache_stats_breakdown[CONST_ACC_R][HIT] = 0
	L2_cache_stats_breakdown[CONST_ACC_R][HIT_RESERVED] = 0
	L2_cache_stats_breakdown[CONST_ACC_R][MISS] = 0
	L2_cache_stats_breakdown[CONST_ACC_R][RESERVATION_FAIL] = 0
	L2_cache_stats_breakdown[CONST_ACC_R][SECTOR_MISS] = 0
	L2_cache_stats_breakdown[CONST_ACC_R][MSHR_HIT] = 0
	L2_cache_stats_breakdown[TEXTURE_ACC_R][HIT] = 0
	L2_cache_stats_breakdown[TEXTURE_ACC_R][HIT_RESERVED] = 0
	L2_cache_stats_breakdown[TEXTURE_ACC_R][MISS] = 0
	L2_cache_stats_breakdown[TEXTURE_ACC_R][RESERVATION_FAIL] = 0
	L2_cache_stats_breakdown[TEXTURE_ACC_R][SECTOR_MISS] = 0
	L2_cache_stats_breakdown[TEXTURE_ACC_R][MSHR_HIT] = 0
	L2_cache_stats_breakdown[GLOBAL_ACC_W][HIT] = 4194816
	L2_cache_stats_breakdown[GLOBAL_ACC_W][HIT_RESERVED] = 0
	L2_cache_stats_breakdown[GLOBAL_ACC_W][MISS] = 128
	L2_cache_stats_breakdown[GLOBAL_ACC_W][RESERVATION_FAIL] = 0
	L2_cache_stats_breakdown[GLOBAL_ACC_W][SECTOR_MISS] = 384
	L2_cache_stats_breakdown[GLOBAL_ACC_W][MSHR_HIT] = 0
	L2_cache_stats_breakdown[LOCAL_ACC_W][HIT] = 0
	L2_cache_stats_breakdown[LOCAL_ACC_W][HIT_RESERVED] = 0
	L2_cache_stats_breakdown[LOCAL_ACC_W][MISS] = 0
	L2_cache_stats_breakdown[LOCAL_ACC_W][RESERVATION_FAIL] = 0
	L2_cache_stats_breakdown[LOCAL_ACC_W][SECTOR_MISS] = 0
	L2_cache_stats_breakdown[LOCAL_ACC_W][MSHR_HIT] = 0
	L2_cache_stats_breakdown[L1_WRBK_ACC][HIT] = 0
	L2_cache_stats_breakdown[L1_WRBK_ACC][HIT_RESERVED] = 0
	L2_cache_stats_breakdown[L1_WRBK_ACC][MISS] = 0
	L2_cache_stats_breakdown[L1_WRBK_ACC][RESERVATION_FAIL] = 0
	L2_cache_stats_breakdown[L1_WRBK_ACC][SECTOR_MISS] = 0
	L2_cache_stats_breakdown[L1_WRBK_ACC][MSHR_HIT] = 0
	L2_cache_stats_breakdown[L2_WRBK_ACC][HIT] = 0
	L2_cache_stats_breakdown[L2_WRBK_ACC][HIT_RESERVED] = 0
	L2_cache_stats_breakdown[L2_WRBK_ACC][MISS] = 0
	L2_cache_stats_breakdown[L2_WRBK_ACC][RESERVATION_FAIL] = 0
	L2_cache_stats_breakdown[L2_WRBK_ACC][SECTOR_MISS] = 0
	L2_cache_stats_breakdown[L2_WRBK_ACC][MSHR_HIT] = 0
	L2_cache_stats_breakdown[INST_ACC_R][HIT] = 0
	L2_cache_stats_breakdown[INST_ACC_R][HIT_RESERVED] = 0
	L2_cache_stats_breakdown[INST_ACC_R][MISS] = 0
	L2_cache_stats_breakdown[INST_ACC_R][RESERVATION_FAIL] = 0
	L2_cache_stats_breakdown[INST_ACC_R][SECTOR_MISS] = 0
	L2_cache_stats_breakdown[INST_ACC_R][MSHR_HIT] = 0
	L2_cache_stats_breakdown[L1_WR_ALLOC_R][HIT] = 0
	L2_cache_stats_breakdown[L1_WR_ALLOC_R][HIT_RESERVED] = 0
	L2_cache_stats_breakdown[L1_WR_ALLOC_R][MISS] = 0
	L2_cache_stats_breakdown[L1_WR_ALLOC_R][RESERVATION_FAIL] = 0
	L2_cache_stats_breakdown[L1_WR_ALLOC_R][SECTOR_MISS] = 0
	L2_cache_stats_breakdown[L1_WR_ALLOC_R][MSHR_HIT] = 0
	L2_cache_stats_breakdown[L2_WR_ALLOC_R][HIT] = 0
	L2_cache_stats_breakdown[L2_WR_ALLOC_R][HIT_RESERVED] = 0
	L2_cache_stats_breakdown[L2_WR_ALLOC_R][MISS] = 0
	L2_cache_stats_breakdown[L2_WR_ALLOC_R][RESERVATION_FAIL] = 0
	L2_cache_stats_breakdown[L2_WR_ALLOC_R][SECTOR_MISS] = 0
	L2_cache_stats_breakdown[L2_WR_ALLOC_R][MSHR_HIT] = 0
	L2_cache_stats_breakdown[GLOBAL_ACC_R][TOTAL_ACCESS] = 4657214
	L2_cache_stats_breakdown[GLOBAL_ACC_W][TOTAL_ACCESS] = 4195328
L2_total_cache_reservation_fail_breakdown:
	L2_cache_stats_fail_breakdown[GLOBAL_ACC_R][MSHR_MERGE_ENRTY_FAIL] = 36623
L2_cache_data_port_util = 0.038
L2_cache_fill_port_util = 0.034

icnt_total_pkts_mem_to_simt=8852542
icnt_total_pkts_simt_to_mem=8852542
LD_mem_lat_dist  0 0 0 0 0 0 0 0 0 0 0 0 0 0 0 0 0 0 0 0 0 0 0 0 0 0 0
ST_mem_lat_dist  0 0 0 0 0 0 0 0 0 0 0 0 0 0 0 0 0 0 0 0 0 0 0 0 0 0 0
----------------------------Interconnect-DETAILS--------------------------------
Req_Network_injected_packets_num = 8852542
Req_Network_cycles = 2558264
Req_Network_injected_packets_per_cycle =       3.4604 
Req_Network_conflicts_per_cycle =       0.2760
Req_Network_conflicts_per_cycle_util =       0.2820
Req_Bank_Level_Parallism =       3.5357
Req_Network_in_buffer_full_per_cycle =       0.0000
Req_Network_in_buffer_avg_util =       0.0307
Req_Network_out_buffer_full_per_cycle =       0.0000
Req_Network_out_buffer_avg_util =       0.0721

Reply_Network_injected_packets_num = 8852542
Reply_Network_cycles = 2558264
Reply_Network_injected_packets_per_cycle =        3.4604
Reply_Network_conflicts_per_cycle =        2.5493
Reply_Network_conflicts_per_cycle_util =       2.6364
Reply_Bank_Level_Parallism =       3.5786
Reply_Network_in_buffer_full_per_cycle =       0.0000
Reply_Network_in_buffer_avg_util =       0.1700
Reply_Network_out_buffer_full_per_cycle =       0.0000
Reply_Network_out_buffer_avg_util =       0.0865
----------------------------END-of-Interconnect-DETAILS-------------------------


gpgpu_simulation_time = 0 days, 0 hrs, 54 min, 22 sec (3262 sec)
gpgpu_simulation_rate = 49551 (inst/sec)
gpgpu_simulation_rate = 784 (cycle/sec)
gpgpu_silicon_slowdown = 1530612x
GPGPU-Sim: synchronize waiting for inactive GPU simulation
GPGPU-Sim API: Stream Manager State
GPGPU-Sim: detected inactive GPU simulation thread
GPU Runtime: 3258.829659s
CPU Runtime: 0.588687s
Non-Matching CPU-GPU Outputs Beyond Error Threshold of 0.50 Percent: 0
GPGPU-Sim: *** exit detected ***
