self exe links to: /workspace/gpgpu-sim_simulations/benchmarks/src/cuda/bin/release/COVAR
self exe links to: /workspace/gpgpu-sim_simulations/benchmarks/src/cuda/bin/release/COVAR
10.1


        *** GPGPU-Sim Simulator Version 4.2.0  [build gpgpu-sim_git-commit-a4ce3fe_modified_0.0] ***


GPGPU-Sim PTX: simulation mode 0 (can change with PTX_SIM_MODE_FUNC environment variable:
               1=functional simulation only, 0=detailed performance simulator)
GPGPU-Sim PTX: overriding embedded ptx with ptx file (PTX_SIM_USE_PTX_FILE is set)
GPGPU-Sim: Configuration options:

-save_embedded_ptx                      0 # saves ptx files embedded in binary as <n>.ptx
-keep                                   0 # keep intermediate files created by GPGPU-Sim when interfacing with external programs
-gpgpu_ptx_save_converted_ptxplus                    0 # Saved converted ptxplus to a file
-gpgpu_occupancy_sm_number                   70 # The SM number to pass to ptxas when getting register usage for computing GPU occupancy. This parameter is required in the config.
-ptx_opcode_latency_int      4,13,4,5,145,32 # Opcode latencies for integers <ADD,MAX,MUL,MAD,DIV,SHFL>Default 1,1,19,25,145,32
-ptx_opcode_latency_fp          4,13,4,5,39 # Opcode latencies for single precision floating points <ADD,MAX,MUL,MAD,DIV>Default 1,1,1,1,30
-ptx_opcode_latency_dp         8,19,8,8,330 # Opcode latencies for double precision floating points <ADD,MAX,MUL,MAD,DIV>Default 8,8,8,8,335
-ptx_opcode_latency_sfu                  100 # Opcode latencies for SFU instructionsDefault 8
-ptx_opcode_latency_tesnor                   64 # Opcode latencies for Tensor instructionsDefault 64
-ptx_opcode_initiation_int          2,2,2,2,8,4 # Opcode initiation intervals for integers <ADD,MAX,MUL,MAD,DIV,SHFL>Default 1,1,4,4,32,4
-ptx_opcode_initiation_fp            2,2,2,2,4 # Opcode initiation intervals for single precision floating points <ADD,MAX,MUL,MAD,DIV>Default 1,1,1,1,5
-ptx_opcode_initiation_dp          4,4,4,4,130 # Opcode initiation intervals for double precision floating points <ADD,MAX,MUL,MAD,DIV>Default 8,8,8,8,130
-ptx_opcode_initiation_sfu                    8 # Opcode initiation intervals for sfu instructionsDefault 8
-ptx_opcode_initiation_tensor                   64 # Opcode initiation intervals for tensor instructionsDefault 64
-cdp_latency         7200,8000,100,12000,1600 # CDP API latency <cudaStreamCreateWithFlags, cudaGetParameterBufferV2_init_perWarp, cudaGetParameterBufferV2_perKernel, cudaLaunchDeviceV2_init_perWarp, cudaLaunchDevicV2_perKernel>Default 7200,8000,100,12000,1600
-network_mode                           2 # Interconnection network mode
-inter_config_file                   mesh # Interconnection network config file
-icnt_in_buffer_limit                  512 # in_buffer_limit
-icnt_out_buffer_limit                  512 # out_buffer_limit
-icnt_subnets                           2 # subnets
-icnt_arbiter_algo                      1 # arbiter_algo
-icnt_verbose                           0 # inct_verbose
-icnt_grant_cycles                      1 # grant_cycles
-gpgpu_ptx_use_cuobjdump                    1 # Use cuobjdump to extract ptx and sass from binaries
-gpgpu_experimental_lib_support                    0 # Try to extract code from cuda libraries [Broken because of unknown cudaGetExportTable]
-checkpoint_option                      0 #  checkpointing flag (0 = no checkpoint)
-checkpoint_kernel                      1 #  checkpointing during execution of which kernel (1- 1st kernel)
-checkpoint_CTA                         0 #  checkpointing after # of CTA (< less than total CTA)
-resume_option                          0 #  resume flag (0 = no resume)
-resume_kernel                          0 #  Resume from which kernel (1= 1st kernel)
-resume_CTA                             0 #  resume from which CTA 
-checkpoint_CTA_t                       0 #  resume from which CTA 
-checkpoint_insn_Y                      0 #  resume from which CTA 
-gpgpu_ptx_convert_to_ptxplus                    0 # Convert SASS (native ISA) to ptxplus and run ptxplus
-gpgpu_ptx_force_max_capability                   70 # Force maximum compute capability
-gpgpu_ptx_inst_debug_to_file                    0 # Dump executed instructions' debug information to file
-gpgpu_ptx_inst_debug_file       inst_debug.txt # Executed instructions' debug output file
-gpgpu_ptx_inst_debug_thread_uid                    1 # Thread UID for executed instructions' debug output
-gpgpu_simd_model                       1 # 1 = post-dominator
-gpgpu_shader_core_pipeline              2048:32 # shader core pipeline config, i.e., {<nthread>:<warpsize>}
-gpgpu_tex_cache:l1  N:4:128:256,L:R:m:N:L,T:512:8,128:2 # per-shader L1 texture cache  (READ-ONLY) config  {<nsets>:<bsize>:<assoc>,<rep>:<wr>:<alloc>:<wr_alloc>,<mshr>:<N>:<merge>,<mq>:<rf>}
-gpgpu_const_cache:l1 N:128:64:8,L:R:f:N:L,S:2:64,4 # per-shader L1 constant memory cache  (READ-ONLY) config  {<nsets>:<bsize>:<assoc>,<rep>:<wr>:<alloc>:<wr_alloc>,<mshr>:<N>:<merge>,<mq>} 
-gpgpu_cache:il1     N:64:128:16,L:R:f:N:L,S:2:48,4 # shader L1 instruction cache config  {<nsets>:<bsize>:<assoc>,<rep>:<wr>:<alloc>:<wr_alloc>,<mshr>:<N>:<merge>,<mq>} 
-gpgpu_cache:dl1     S:4:128:64,L:T:m:L:L,A:512:8,16:0,32 # per-shader L1 data cache config  {<nsets>:<bsize>:<assoc>,<rep>:<wr>:<alloc>:<wr_alloc>,<mshr>:<N>:<merge>,<mq> | none}
-gpgpu_l1_cache_write_ratio                   25 # L1D write ratio
-gpgpu_l1_banks                         4 # The number of L1 cache banks
-gpgpu_l1_banks_byte_interleaving                   32 # l1 banks byte interleaving granularity
-gpgpu_l1_banks_hashing_function                    0 # l1 banks hashing function
-gpgpu_l1_latency                      20 # L1 Hit Latency
-gpgpu_smem_latency                    20 # smem Latency
-gpgpu_cache:dl1PrefL1                 none # per-shader L1 data cache config  {<nsets>:<bsize>:<assoc>,<rep>:<wr>:<alloc>:<wr_alloc>,<mshr>:<N>:<merge>,<mq> | none}
-gpgpu_cache:dl1PrefShared                 none # per-shader L1 data cache config  {<nsets>:<bsize>:<assoc>,<rep>:<wr>:<alloc>:<wr_alloc>,<mshr>:<N>:<merge>,<mq> | none}
-gpgpu_gmem_skip_L1D                    0 # global memory access skip L1D cache (implements -Xptxas -dlcm=cg, default=no skip)
-gpgpu_perfect_mem                      0 # enable perfect memory mode (no cache miss)
-n_regfile_gating_group                    4 # group of lanes that should be read/written together)
-gpgpu_clock_gated_reg_file                    0 # enable clock gated reg file for power calculations
-gpgpu_clock_gated_lanes                    0 # enable clock gated lanes for power calculations
-gpgpu_shader_registers                65536 # Number of registers per shader core. Limits number of concurrent CTAs. (default 8192)
-gpgpu_registers_per_block                65536 # Maximum number of registers per CTA. (default 8192)
-gpgpu_ignore_resources_limitation                    0 # gpgpu_ignore_resources_limitation (default 0)
-gpgpu_shader_cta                      32 # Maximum number of concurrent CTAs in shader (default 32)
-gpgpu_num_cta_barriers                   16 # Maximum number of named barriers per CTA (default 16)
-gpgpu_n_clusters                      40 # number of processing clusters
-gpgpu_n_cores_per_cluster                    2 # number of simd cores per cluster
-gpgpu_n_cluster_ejection_buffer_size                   32 # number of packets in ejection buffer
-gpgpu_n_ldst_response_buffer_size                    2 # number of response packets in ld/st unit ejection buffer
-gpgpu_shmem_per_block                65536 # Size of shared memory per thread block or CTA (default 48kB)
-gpgpu_shmem_size                   98304 # Size of shared memory per shader core (default 16kB)
-gpgpu_shmem_option       0,8,16,32,64,96 # Option list of shared memory sizes
-gpgpu_unified_l1d_size                  128 # Size of unified data cache(L1D + shared memory) in KB
-gpgpu_adaptive_cache_config                    1 # adaptive_cache_config
-gpgpu_shmem_sizeDefault                98304 # Size of shared memory per shader core (default 16kB)
-gpgpu_shmem_size_PrefL1                16384 # Size of shared memory per shader core (default 16kB)
-gpgpu_shmem_size_PrefShared                16384 # Size of shared memory per shader core (default 16kB)
-gpgpu_shmem_num_banks                   32 # Number of banks in the shared memory in each shader core (default 16)
-gpgpu_shmem_limited_broadcast                    0 # Limit shared memory to do one broadcast per cycle (default on)
-gpgpu_shmem_warp_parts                    1 # Number of portions a warp is divided into for shared memory bank conflict check 
-gpgpu_mem_unit_ports                    1 # The number of memory transactions allowed per core cycle
-gpgpu_shmem_warp_parts                    1 # Number of portions a warp is divided into for shared memory bank conflict check 
-gpgpu_warpdistro_shader                   -1 # Specify which shader core to collect the warp size distribution from
-gpgpu_warp_issue_shader                    0 # Specify which shader core to collect the warp issue distribution from
-gpgpu_local_mem_map                    1 # Mapping from local memory space address to simulated GPU physical address space (default = enabled)
-gpgpu_num_reg_banks                    8 # Number of register banks (default = 8)
-gpgpu_reg_bank_use_warp_id                    0 # Use warp ID in mapping registers to banks (default = off)
-gpgpu_sub_core_model                    1 # Sub Core Volta/Pascal model (default = off)
-gpgpu_enable_specialized_operand_collector                    0 # enable_specialized_operand_collector
-gpgpu_operand_collector_num_units_sp                    4 # number of collector units (default = 4)
-gpgpu_operand_collector_num_units_dp                    0 # number of collector units (default = 0)
-gpgpu_operand_collector_num_units_sfu                    4 # number of collector units (default = 4)
-gpgpu_operand_collector_num_units_int                    0 # number of collector units (default = 0)
-gpgpu_operand_collector_num_units_tensor_core                    4 # number of collector units (default = 4)
-gpgpu_operand_collector_num_units_mem                    2 # number of collector units (default = 2)
-gpgpu_operand_collector_num_units_gen                    8 # number of collector units (default = 0)
-gpgpu_operand_collector_num_in_ports_sp                    1 # number of collector unit in ports (default = 1)
-gpgpu_operand_collector_num_in_ports_dp                    0 # number of collector unit in ports (default = 0)
-gpgpu_operand_collector_num_in_ports_sfu                    1 # number of collector unit in ports (default = 1)
-gpgpu_operand_collector_num_in_ports_int                    0 # number of collector unit in ports (default = 0)
-gpgpu_operand_collector_num_in_ports_tensor_core                    1 # number of collector unit in ports (default = 1)
-gpgpu_operand_collector_num_in_ports_mem                    1 # number of collector unit in ports (default = 1)
-gpgpu_operand_collector_num_in_ports_gen                    8 # number of collector unit in ports (default = 0)
-gpgpu_operand_collector_num_out_ports_sp                    1 # number of collector unit in ports (default = 1)
-gpgpu_operand_collector_num_out_ports_dp                    0 # number of collector unit in ports (default = 0)
-gpgpu_operand_collector_num_out_ports_sfu                    1 # number of collector unit in ports (default = 1)
-gpgpu_operand_collector_num_out_ports_int                    0 # number of collector unit in ports (default = 0)
-gpgpu_operand_collector_num_out_ports_tensor_core                    1 # number of collector unit in ports (default = 1)
-gpgpu_operand_collector_num_out_ports_mem                    1 # number of collector unit in ports (default = 1)
-gpgpu_operand_collector_num_out_ports_gen                    8 # number of collector unit in ports (default = 0)
-gpgpu_coalesce_arch                   60 # Coalescing arch (GT200 = 13, Fermi = 20)
-gpgpu_num_sched_per_core                    4 # Number of warp schedulers per core
-gpgpu_max_insn_issue_per_warp                    1 # Max number of instructions that can be issued per warp in one cycle by scheduler (either 1 or 2)
-gpgpu_dual_issue_diff_exec_units                    1 # should dual issue use two different execution unit resources (Default = 1)
-gpgpu_simt_core_sim_order                    1 # Select the simulation order of cores in a cluster (0=Fix, 1=Round-Robin)
-gpgpu_pipeline_widths 4,4,4,4,4,4,4,4,4,4,8,4,4 # Pipeline widths ID_OC_SP,ID_OC_DP,ID_OC_INT,ID_OC_SFU,ID_OC_MEM,OC_EX_SP,OC_EX_DP,OC_EX_INT,OC_EX_SFU,OC_EX_MEM,EX_WB,ID_OC_TENSOR_CORE,OC_EX_TENSOR_CORE
-gpgpu_tensor_core_avail                    1 # Tensor Core Available (default=0)
-gpgpu_num_sp_units                     4 # Number of SP units (default=1)
-gpgpu_num_dp_units                     4 # Number of DP units (default=0)
-gpgpu_num_int_units                    4 # Number of INT units (default=0)
-gpgpu_num_sfu_units                    4 # Number of SF units (default=1)
-gpgpu_num_tensor_core_units                    4 # Number of tensor_core units (default=1)
-gpgpu_num_mem_units                    1 # Number if ldst units (default=1) WARNING: not hooked up to anything
-gpgpu_scheduler                      lrr # Scheduler configuration: < lrr | gto | two_level_active > If two_level_active:<num_active_warps>:<inner_prioritization>:<outer_prioritization>For complete list of prioritization values see shader.h enum scheduler_prioritization_typeDefault: gto
-gpgpu_concurrent_kernel_sm                    0 # Support concurrent kernels on a SM (default = disabled)
-gpgpu_perfect_inst_const_cache                    1 # perfect inst and const cache mode, so all inst and const hits in the cache(default = disabled)
-gpgpu_inst_fetch_throughput                    4 # the number of fetched intruction per warp each cycle
-gpgpu_reg_file_port_throughput                    2 # the number ports of the register file
-specialized_unit_1         0,4,4,4,4,BRA # specialized unit config {<enabled>,<num_units>:<latency>:<initiation>,<ID_OC_SPEC>:<OC_EX_SPEC>,<NAME>}
-specialized_unit_2         0,4,4,4,4,BRA # specialized unit config {<enabled>,<num_units>:<latency>:<initiation>,<ID_OC_SPEC>:<OC_EX_SPEC>,<NAME>}
-specialized_unit_3         0,4,4,4,4,BRA # specialized unit config {<enabled>,<num_units>:<latency>:<initiation>,<ID_OC_SPEC>:<OC_EX_SPEC>,<NAME>}
-specialized_unit_4         0,4,4,4,4,BRA # specialized unit config {<enabled>,<num_units>:<latency>:<initiation>,<ID_OC_SPEC>:<OC_EX_SPEC>,<NAME>}
-specialized_unit_5         0,4,4,4,4,BRA # specialized unit config {<enabled>,<num_units>:<latency>:<initiation>,<ID_OC_SPEC>:<OC_EX_SPEC>,<NAME>}
-specialized_unit_6         0,4,4,4,4,BRA # specialized unit config {<enabled>,<num_units>:<latency>:<initiation>,<ID_OC_SPEC>:<OC_EX_SPEC>,<NAME>}
-specialized_unit_7         0,4,4,4,4,BRA # specialized unit config {<enabled>,<num_units>:<latency>:<initiation>,<ID_OC_SPEC>:<OC_EX_SPEC>,<NAME>}
-specialized_unit_8         0,4,4,4,4,BRA # specialized unit config {<enabled>,<num_units>:<latency>:<initiation>,<ID_OC_SPEC>:<OC_EX_SPEC>,<NAME>}
-gpgpu_perf_sim_memcpy                    1 # Fill the L2 cache on memcpy
-gpgpu_simple_dram_model                    0 # simple_dram_model with fixed latency and BW
-gpgpu_dram_scheduler                    1 # 0 = fifo, 1 = FR-FCFS (defaul)
-gpgpu_dram_partition_queues          64:64:64:64 # i2$:$2d:d2$:$2i
-l2_ideal                               0 # Use a ideal L2 cache that always hit
-gpgpu_cache:dl2     S:32:128:24,L:B:m:L:P,A:192:4,32:0,32 # unified banked L2 data cache config  {<nsets>:<bsize>:<assoc>,<rep>:<wr>:<alloc>:<wr_alloc>,<mshr>:<N>:<merge>,<mq>}
-gpgpu_cache:dl2_texture_only                    0 # L2 cache used for texture only
-gpgpu_n_mem                           24 # number of memory modules (e.g. memory controllers) in gpu
-gpgpu_n_sub_partition_per_mchannel                    2 # number of memory subpartition in each memory module
-gpgpu_n_mem_per_ctrlr                    1 # number of memory chips per memory controller
-gpgpu_memlatency_stat                   14 # track and display latency statistics 0x2 enables MC, 0x4 enables queue logs
-gpgpu_frfcfs_dram_sched_queue_size                   64 # 0 = unlimited (default); # entries per chip
-gpgpu_dram_return_queue_size                  192 # 0 = unlimited (default); # entries per chip
-gpgpu_dram_buswidth                   16 # default = 4 bytes (8 bytes per cycle at DDR)
-gpgpu_dram_burst_length                    2 # Burst length of each DRAM request (default = 4 data bus cycle)
-dram_data_command_freq_ratio                    2 # Frequency ratio between DRAM data bus and command bus (default = 2 times, i.e. DDR)
-gpgpu_dram_timing_opt nbk=16:CCD=1:RRD=3:RCD=12:RAS=28:RP=12:RC=40: CL=12:WL=2:CDLR=3:WR=10:nbkgrp=4:CCDL=2:RTPL=3 # DRAM timing parameters = {nbk:tCCD:tRRD:tRCD:tRAS:tRP:tRC:CL:WL:tCDLR:tWR:nbkgrp:tCCDL:tRTPL}
-gpgpu_l2_rop_latency                  160 # ROP queue latency (default 85)
-dram_latency                         100 # DRAM latency (default 30)
-dram_dual_bus_interface                  257 # dual_bus_interface (default = 0) 
-dram_bnk_indexing_policy                    1 # dram_bnk_indexing_policy (0 = normal indexing, 1 = Xoring with the higher bits) (Default = 0)
-dram_bnkgrp_indexing_policy                    1 # dram_bnkgrp_indexing_policy (0 = take higher bits, 1 = take lower bits) (Default = 0)
-dram_seperate_write_queue_enable                    1 # Seperate_Write_Queue_Enable
-dram_write_queue_size           128:108:32 # Write_Queue_Size
-dram_elimnate_rw_turnaround                    0 # elimnate_rw_turnaround i.e set tWTR and tRTW = 0
-icnt_flit_size                        40 # icnt_flit_size
-SST_mode                               0 # SST mode
-gpgpu_mem_addr_mapping dramid@8;00000000.00000000.00000000.00000000.0000RRRR.RRRRRRRR.RBBBCCCB.CCCSSSSS # mapping memory address to dram model {dramid@<start bit>;<memory address map>}
-gpgpu_mem_addr_test                    0 # run sweep test to check address mapping for aliased address
-gpgpu_mem_address_mask                    1 # 0 = old addressing mask, 1 = new addressing mask, 2 = new add. mask + flipped bank sel and chip sel bits
-gpgpu_memory_partition_indexing                    2 # 0 = no indexing, 1 = bitwise xoring, 2 = IPoly, 3 = custom indexing
-accelwattch_xml_file accelwattch_sass_sim.xml # AccelWattch XML file
-power_simulation_enabled                    0 # Turn on power simulator (1=On, 0=Off)
-power_per_cycle_dump                    0 # Dump detailed power output each cycle
-hw_perf_file_name            hw_perf.csv # Hardware Performance Statistics file
-hw_perf_bench_name                       # Kernel Name in Hardware Performance Statistics file
-power_simulation_mode                    0 # Switch performance counter input for power simulation (0=Sim, 1=HW, 2=HW-Sim Hybrid)
-dvfs_enabled                           0 # Turn on DVFS for power model
-aggregate_power_stats                    0 # Accumulate power across all kernels
-accelwattch_hybrid_perfsim_L1_RH                    0 # Get L1 Read Hits for Accelwattch-Hybrid from Accel-Sim
-accelwattch_hybrid_perfsim_L1_RM                    0 # Get L1 Read Misses for Accelwattch-Hybrid from Accel-Sim
-accelwattch_hybrid_perfsim_L1_WH                    0 # Get L1 Write Hits for Accelwattch-Hybrid from Accel-Sim
-accelwattch_hybrid_perfsim_L1_WM                    0 # Get L1 Write Misses for Accelwattch-Hybrid from Accel-Sim
-accelwattch_hybrid_perfsim_L2_RH                    0 # Get L2 Read Hits for Accelwattch-Hybrid from Accel-Sim
-accelwattch_hybrid_perfsim_L2_RM                    0 # Get L2 Read Misses for Accelwattch-Hybrid from Accel-Sim
-accelwattch_hybrid_perfsim_L2_WH                    0 # Get L2 Write Hits for Accelwattch-Hybrid from Accel-Sim
-accelwattch_hybrid_perfsim_L2_WM                    0 # Get L2 Write Misses for Accelwattch-Hybrid from Accel-Sim
-accelwattch_hybrid_perfsim_CC_ACC                    0 # Get Constant Cache Acesses for Accelwattch-Hybrid from Accel-Sim
-accelwattch_hybrid_perfsim_SHARED_ACC                    0 # Get Shared Memory Acesses for Accelwattch-Hybrid from Accel-Sim
-accelwattch_hybrid_perfsim_DRAM_RD                    0 # Get DRAM Reads for Accelwattch-Hybrid from Accel-Sim
-accelwattch_hybrid_perfsim_DRAM_WR                    0 # Get DRAM Writes for Accelwattch-Hybrid from Accel-Sim
-accelwattch_hybrid_perfsim_NOC                    0 # Get Interconnect Acesses for Accelwattch-Hybrid from Accel-Sim
-accelwattch_hybrid_perfsim_PIPE_DUTY                    0 # Get Pipeline Duty Cycle Acesses for Accelwattch-Hybrid from Accel-Sim
-accelwattch_hybrid_perfsim_NUM_SM_IDLE                    0 # Get Number of Idle SMs for Accelwattch-Hybrid from Accel-Sim
-accelwattch_hybrid_perfsim_CYCLES                    0 # Get Executed Cycles for Accelwattch-Hybrid from Accel-Sim
-accelwattch_hybrid_perfsim_VOLTAGE                    0 # Get Chip Voltage for Accelwattch-Hybrid from Accel-Sim
-power_trace_enabled                    0 # produce a file for the power trace (1=On, 0=Off)
-power_trace_zlevel                     6 # Compression level of the power trace output log (0=no comp, 9=highest)
-steady_power_levels_enabled                    0 # produce a file for the steady power levels (1=On, 0=Off)
-steady_state_definition                  8:4 # allowed deviation:number of samples
-gpgpu_max_cycle                        0 # terminates gpu simulation early (0 = no limit)
-gpgpu_max_insn                         0 # terminates gpu simulation early (0 = no limit)
-gpgpu_max_cta                          0 # terminates gpu simulation early (0 = no limit)
-gpgpu_max_completed_cta                    0 # terminates gpu simulation early (0 = no limit)
-gpgpu_runtime_stat                   500 # display runtime statistics such as dram utilization {<freq>:<flag>}
-liveness_message_freq                    1 # Minimum number of seconds between simulation liveness messages (0 = always print)
-gpgpu_compute_capability_major                    7 # Major compute capability version number
-gpgpu_compute_capability_minor                    0 # Minor compute capability version number
-gpgpu_flush_l1_cache                    1 # Flush L1 cache at the end of each kernel call
-gpgpu_flush_l2_cache                    0 # Flush L2 cache at the end of each kernel call
-gpgpu_deadlock_detect                    1 # Stop the simulation at deadlock (1=on (default), 0=off)
-gpgpu_ptx_instruction_classification                    0 # if enabled will classify ptx instruction types per kernel (Max 255 kernels now)
-gpgpu_ptx_sim_mode                     0 # Select between Performance (default) or Functional simulation (1)
-gpgpu_clock_domains 1200.0:1200.0:1200.0:850.0 # Clock Domain Frequencies in MhZ {<Core Clock>:<ICNT Clock>:<L2 Clock>:<DRAM Clock>}
-gpgpu_max_concurrent_kernel                  128 # maximum kernels that can run concurrently on GPU, set this value according to max resident grids for your compute capability
-gpgpu_cflog_interval                    0 # Interval between each snapshot in control flow logger
-visualizer_enabled                     0 # Turn on visualizer output (1=On, 0=Off)
-visualizer_outputfile                 NULL # Specifies the output log file for visualizer
-visualizer_zlevel                      6 # Compression level of the visualizer output log (0=no comp, 9=highest)
-gpgpu_stack_size_limit                 1024 # GPU thread stack size
-gpgpu_heap_size_limit              8388608 # GPU malloc heap size 
-gpgpu_runtime_sync_depth_limit                    2 # GPU device runtime synchronize depth
-gpgpu_runtime_pending_launch_count_limit                 2048 # GPU device runtime pending launch count
-trace_enabled                          0 # Turn on traces
-trace_components                    none # comma seperated list of traces to enable. Complete list found in trace_streams.tup. Default none
-trace_sampling_core                    0 # The core which is printed using CORE_DPRINTF. Default 0
-trace_sampling_memory_partition                   -1 # The memory partition which is printed using MEMPART_DPRINTF. Default -1 (i.e. all)
-enable_ptx_file_line_stats                    1 # Turn on PTX source line statistic profiling. (1 = On)
-ptx_line_stats_filename gpgpu_inst_stats.txt # Output file for PTX source line statistics.
-gpgpu_kernel_launch_latency                    0 # Kernel launch latency in cycles. Default: 0
-gpgpu_cdp_enabled                      0 # Turn on CDP
-gpgpu_TB_launch_latency                    0 # thread block launch latency in cycles. Default: 0
DRAM Timing Options:
nbk                                    16 # number of banks
CCD                                     1 # column to column delay
RRD                              3e7378841b1a9fa5e81dd38ff08916b2  /workspace/gpgpu-sim_simulations/benchmarks/src/cuda/bin/release/COVAR
Extracting PTX file and ptxas options    1: COVAR.1.sm_30.ptx -arch=sm_30
       3 # minimal delay between activation of rows in different banks
RCD                                    12 # row to column delay
RAS                                    28 # time needed to activate row
RP                                     12 # time needed to precharge (deactivate) row
RC                                     40 # row cycle time
CDLR                                    3 # switching from write to read (changes tWTR)
WR                                     10 # last data-in to row precharge
CL                                     12 # CAS latency
WL                                      2 # Write latency
nbkgrp                                  4 # number of bank groups
CCDL                                    2 # column to column delay between accesses to different bank groups
RTPL                                    3 # read to precharge delay between accesses to different bank groups
Total number of memory sub partition = 48
addr_dec_mask[CHIP]  = 0000000000000000 	high:64 low:0
addr_dec_mask[BK]    = 0000000000007100 	high:15 low:8
addr_dec_mask[ROW]   = 000000000fff8000 	high:28 low:15
addr_dec_mask[COL]   = 0000000000000eff 	high:12 low:0
addr_dec_mask[BURST] = 000000000000001f 	high:5 low:0
sub_partition_id_mask = 0000000000000100
GPGPU-Sim uArch: clock freqs: 1200000000.000000:1200000000.000000:1200000000.000000:850000000.000000
GPGPU-Sim uArch: clock periods: 0.00000000083333333333:0.00000000083333333333:0.00000000083333333333:0.00000000117647058824
*** Initializing Memory Statistics ***
GPGPU-Sim uArch: performance model initialization complete.
GPGPU-Sim PTX: __cudaRegisterFatBinary, fat_cubin_handle = 1, filename=default
self exe links to: /workspace/gpgpu-sim_simulations/benchmarks/src/cuda/bin/release/COVAR
Running md5sum using "md5sum /workspace/gpgpu-sim_simulations/benchmarks/src/cuda/bin/release/COVAR "
self exe links to: /workspace/gpgpu-sim_simulations/benchmarks/src/cuda/bin/release/COVAR
Extracting specific PTX file named COVAR.1.sm_30.ptx 
GPGPU-Sim PTX: __cudaRegisterFunction _Z12covar_kernelPfS_ : hostFun 0x0x621863801cfd, fat_cubin_handle = 1
GPGPU-Sim PTX: Parsing COVAR.1.sm_30.ptx
GPGPU-Sim PTX: instruction assembly for function '_Z11mean_kernelPfS_'...   done.
GPGPU-Sim PTX: instruction assembly for function '_Z13reduce_kernelPfS_'...   done.
GPGPU-Sim PTX: instruction assembly for function '_Z12covar_kernelPfS_'...   done.
GPGPU-Sim PTX: finished parsing EMBEDDED .ptx file COVAR.1.sm_30.ptx
GPGPU-Sim PTX: loading globals with explicit initializers... 
GPGPU-Sim PTX: finished loading globals (0 bytes total).
GPGPU-Sim PTX: loading constants with explicit initializers...  done.
GPGPU-Sim PTX: Loading PTXInfo from COVAR.1.sm_30.ptx
GPGPU-Sim PTX: Kernel '_Z12covar_kernelPfS_' : regs=25, lmem=0, smem=0, cmem=336
GPGPU-Sim PTX: Kernel '_Z13reduce_kernelPfS_' : regs=7, lmem=0, smem=0, cmem=336
GPGPU-Sim PTX: Kernel '_Z11mean_kernelPfS_' : regs=15, lmem=0, smem=0, cmem=364
GPGPU-Sim PTX: __cudaRegisterFunction _Z13reduce_kernelPfS_ : hostFun 0x0x621863801b96, fat_cubin_handle = 1
GPGPU-Sim PTX: __cudaRegisterFunction _Z11mean_kernelPfS_ : hostFun 0x0x621863801a2f, fat_cubin_handle = 1
setting device 0 with name GPGPU-Sim_vGPGPU-Sim Simulator Version 4.2.0 
GPGPU-Sim PTX: Setting up arguments for 8 bytes starting at 0x7fffe2b3b248..
GPGPU-Sim PTX: Setting up arguments for 8 bytes starting at 0x7fffe2b3b240..

GPGPU-Sim PTX: cudaLaunch for 0x0x621863801a2f (mode=performance simulation) on stream 0
GPGPU-Sim PTX: finding reconvergence points for '_Z11mean_kernelPfS_'...
GPGPU-Sim PTX: Finding dominators for '_Z11mean_kernelPfS_'...
GPGPU-Sim PTX: Finding immediate dominators for '_Z11mean_kernelPfS_'...
GPGPU-Sim PTX: Finding postdominators for '_Z11mean_kernelPfS_'...
GPGPU-Sim PTX: Finding immediate postdominators for '_Z11mean_kernelPfS_'...
GPGPU-Sim PTX: pre-decoding instructions for '_Z11mean_kernelPfS_'...
GPGPU-Sim PTX: reconvergence points for _Z11mean_kernelPfS_...
GPGPU-Sim PTX:  1 (potential) branch divergence @  PC=0x038 (COVAR.1.sm_30.ptx:33) @%p1 bra BB0_4;
GPGPU-Sim PTX:    immediate post dominator      @  PC=0x240 (COVAR.1.sm_30.ptx:104) ret;
GPGPU-Sim PTX:  2 (potential) branch divergence @  PC=0x228 (COVAR.1.sm_30.ptx:98) @%p2 bra BB0_2;
GPGPU-Sim PTX:    immediate post dominator      @  PC=0x230 (COVAR.1.sm_30.ptx:100) div.rn.f32 %f35, %f36, 0f4A442E10;
GPGPU-Sim PTX: ... end of reconvergence points for _Z11mean_kernelPfS_
GPGPU-Sim PTX: ... done pre-decoding instructions for '_Z11mean_kernelPfS_'.
GPGPU-Sim PTX: pushing kernel '_Z11mean_kernelPfS_' to stream 0, gridDim= (8,1,1) blockDim = (256,1,1) 
GPGPU-Sim uArch: Shader 0 bind to kernel 1 '_Z11mean_kernelPfS_'
GPGPU-Sim uArch: CTA/core = 8, limited by: threads
GPGPU-Sim: Reconfigure L1 cache to 128KB
GPGPU-Sim uArch: Shader 2 bind to kernel 1 '_Z11mean_kernelPfS_'
GPGPU-Sim uArch: Shader 4 bind to kernel 1 '_Z11mean_kernelPfS_'
GPGPU-Sim uArch: Shader 6 bind to kernel 1 '_Z11mean_kernelPfS_'
GPGPU-Sim uArch: Shader 8 bind to kernel 1 '_Z11mean_kernelPfS_'
GPGPU-Sim uArch: Shader 10 bind to kernel 1 '_Z11mean_kernelPfS_'
GPGPU-Sim uArch: Shader 12 bind to kernel 1 '_Z11mean_kernelPfS_'
GPGPU-Sim uArch: Shader 14 bind to kernel 1 '_Z11mean_kernelPfS_'
Destroy streams for kernel 1: size 0
kernel_name = _Z11mean_kernelPfS_ 
kernel_launch_uid = 1 
kernel_stream_id = 0
gpu_sim_cycle = 708814
gpu_sim_insn = 14190592
gpu_ipc =      20.0202
gpu_tot_sim_cycle = 708814
gpu_tot_sim_insn = 14190592
gpu_tot_ipc =      20.0202
gpu_tot_issued_cta = 8
gpu_occupancy = 12.4986% 
gpu_tot_occupancy = 12.4986% 
max_total_param_size = 0
gpu_stall_dramfull = 0
gpu_stall_icnt2sh    = 0
partiton_level_parallism =       1.6854
partiton_level_parallism_total  =       1.6854
partiton_level_parallism_util =       1.9220
partiton_level_parallism_util_total  =       1.9220
L2_BW  =      64.7188 GB/Sec
L2_BW_total  =      64.7188 GB/Sec
gpu_total_sim_rate=39973

========= Core cache stats =========
L1I_cache:
	L1I_total_cache_accesses = 0
	L1I_total_cache_misses = 0
	L1I_total_cache_pending_hits = 0
	L1I_total_cache_reservation_fails = 0
L1D_cache:
	L1D_cache_core[0]: Access = 161872, Miss = 67361, Miss_rate = 0.416, Pending_hits = 12544, Reservation_fails = 2197
	L1D_cache_core[1]: Access = 161872, Miss = 67361, Miss_rate = 0.416, Pending_hits = 12544, Reservation_fails = 3503
	L1D_cache_core[2]: Access = 161872, Miss = 67361, Miss_rate = 0.416, Pending_hits = 12544, Reservation_fails = 2447
	L1D_cache_core[3]: Access = 161872, Miss = 67361, Miss_rate = 0.416, Pending_hits = 12544, Reservation_fails = 2282
	L1D_cache_core[4]: Access = 161872, Miss = 67361, Miss_rate = 0.416, Pending_hits = 12544, Reservation_fails = 1769
	L1D_cache_core[5]: Access = 161872, Miss = 67361, Miss_rate = 0.416, Pending_hits = 12544, Reservation_fails = 2430
	L1D_cache_core[6]: Access = 161872, Miss = 67361, Miss_rate = 0.416, Pending_hits = 12544, Reservation_fails = 2312
	L1D_cache_core[7]: Access = 161872, Miss = 67361, Miss_rate = 0.416, Pending_hits = 12544, Reservation_fails = 2308
	L1D_cache_core[8]: Access = 0, Miss = 0, Miss_rate = -nan, Pending_hits = 0, Reservation_fails = 0
	L1D_cache_core[9]: Access = 0, Miss = 0, Miss_rate = -nan, Pending_hits = 0, Reservation_fails = 0
	L1D_cache_core[10]: Access = 0, Miss = 0, Miss_rate = -nan, Pending_hits = 0, Reservation_fails = 0
	L1D_cache_core[11]: Access = 0, Miss = 0, Miss_rate = -nan, Pending_hits = 0, Reservation_fails = 0
	L1D_cache_core[12]: Access = 0, Miss = 0, Miss_rate = -nan, Pending_hits = 0, Reservation_fails = 0
	L1D_cache_core[13]: Access = 0, Miss = 0, Miss_rate = -nan, Pending_hits = 0, Reservation_fails = 0
	L1D_cache_core[14]: Access = 0, Miss = 0, Miss_rate = -nan, Pending_hits = 0, Reservation_fails = 0
	L1D_cache_core[15]: Access = 0, Miss = 0, Miss_rate = -nan, Pending_hits = 0, Reservation_fails = 0
	L1D_cache_core[16]: Access = 0, Miss = 0, Miss_rate = -nan, Pending_hits = 0, Reservation_fails = 0
	L1D_cache_core[17]: Access = 0, Miss = 0, Miss_rate = -nan, Pending_hits = 0, Reservation_fails = 0
	L1D_cache_core[18]: Access = 0, Miss = 0, Miss_rate = -nan, Pending_hits = 0, Reservation_fails = 0
	L1D_cache_core[19]: Access = 0, Miss = 0, Miss_rate = -nan, Pending_hits = 0, Reservation_fails = 0
	L1D_cache_core[20]: Access = 0, Miss = 0, Miss_rate = -nan, Pending_hits = 0, Reservation_fails = 0
	L1D_cache_core[21]: Access = 0, Miss = 0, Miss_rate = -nan, Pending_hits = 0, Reservation_fails = 0
	L1D_cache_core[22]: Access = 0, Miss = 0, Miss_rate = -nan, Pending_hits = 0, Reservation_fails = 0
	L1D_cache_core[23]: Access = 0, Miss = 0, Miss_rate = -nan, Pending_hits = 0, Reservation_fails = 0
	L1D_cache_core[24]: Access = 0, Miss = 0, Miss_rate = -nan, Pending_hits = 0, Reservation_fails = 0
	L1D_cache_core[25]: Access = 0, Miss = 0, Miss_rate = -nan, Pending_hits = 0, Reservation_fails = 0
	L1D_cache_core[26]: Access = 0, Miss = 0, Miss_rate = -nan, Pending_hits = 0, Reservation_fails = 0
	L1D_cache_core[27]: Access = 0, Miss = 0, Miss_rate = -nan, Pending_hits = 0, Reservation_fails = 0
	L1D_cache_core[28]: Access = 0, Miss = 0, Miss_rate = -nan, Pending_hits = 0, Reservation_fails = 0
	L1D_cache_core[29]: Access = 0, Miss = 0, Miss_rate = -nan, Pending_hits = 0, Reservation_fails = 0
	L1D_cache_core[30]: Access = 0, Miss = 0, Miss_rate = -nan, Pending_hits = 0, Reservation_fails = 0
	L1D_cache_core[31]: Access = 0, Miss = 0, Miss_rate = -nan, Pending_hits = 0, Reservation_fails = 0
	L1D_cache_core[32]: Access = 0, Miss = 0, Miss_rate = -nan, Pending_hits = 0, Reservation_fails = 0
	L1D_cache_core[33]: Access = 0, Miss = 0, Miss_rate = -nan, Pending_hits = 0, Reservation_fails = 0
	L1D_cache_core[34]: Access = 0, Miss = 0, Miss_rate = -nan, Pending_hits = 0, Reservation_fails = 0
	L1D_cache_core[35]: Access = 0, Miss = 0, Miss_rate = -nan, Pending_hits = 0, Reservation_fails = 0
	L1D_cache_core[36]: Access = 0, Miss = 0, Miss_rate = -nan, Pending_hits = 0, Reservation_fails = 0
	L1D_cache_core[37]: Access = 0, Miss = 0, Miss_rate = -nan, Pending_hits = 0, Reservation_fails = 0
	L1D_cache_core[38]: Access = 0, Miss = 0, Miss_rate = -nan, Pending_hits = 0, Reservation_fails = 0
	L1D_cache_core[39]: Access = 0, Miss = 0, Miss_rate = -nan, Pending_hits = 0, Reservation_fails = 0
	L1D_total_cache_accesses = 1294976
	L1D_total_cache_misses = 538888
	L1D_total_cache_miss_rate = 0.4161
	L1D_total_cache_pending_hits = 100352
	L1D_total_cache_reservation_fails = 19248
	L1D_cache_data_port_util = 0.116
	L1D_cache_fill_port_util = 0.095
L1C_cache:
	L1C_total_cache_accesses = 0
	L1C_total_cache_misses = 0
	L1C_total_cache_pending_hits = 0
	L1C_total_cache_reservation_fails = 0
L1T_cache:
	L1T_total_cache_accesses = 0
	L1T_total_cache_misses = 0
	L1T_total_cache_pending_hits = 0
	L1T_total_cache_reservation_fails = 0

Total_core_cache_stats:
	Total_core_cache_stats_breakdown[GLOBAL_ACC_R][HIT] = 0
	Total_core_cache_stats_breakdown[GLOBAL_ACC_R][HIT_RESERVED] = 100352
	Total_core_cache_stats_breakdown[GLOBAL_ACC_R][MISS] = 146944
	Total_core_cache_stats_breakdown[GLOBAL_ACC_R][RESERVATION_FAIL] = 17683
	Total_core_cache_stats_breakdown[GLOBAL_ACC_R][SECTOR_MISS] = 391680
	Total_core_cache_stats_breakdown[GLOBAL_ACC_R][MSHR_HIT] = 100352
	Total_core_cache_stats_breakdown[LOCAL_ACC_R][HIT] = 0
	Total_core_cache_stats_breakdown[LOCAL_ACC_R][HIT_RESERVED] = 0
	Total_core_cache_stats_breakdown[LOCAL_ACC_R][MISS] = 0
	Total_core_cache_stats_breakdown[LOCAL_ACC_R][RESERVATION_FAIL] = 0
	Total_core_cache_stats_breakdown[LOCAL_ACC_R][SECTOR_MISS] = 0
	Total_core_cache_stats_breakdown[LOCAL_ACC_R][MSHR_HIT] = 0
	Total_core_cache_stats_breakdown[CONST_ACC_R][HIT] = 0
	Total_core_cache_stats_breakdown[CONST_ACC_R][HIT_RESERVED] = 0
	Total_core_cache_stats_breakdown[CONST_ACC_R][MISS] = 0
	Total_core_cache_stats_breakdown[CONST_ACC_R][RESERVATION_FAIL] = 0
	Total_core_cache_stats_breakdown[CONST_ACC_R][SECTOR_MISS] = 0
	Total_core_cache_stats_breakdown[CONST_ACC_R][MSHR_HIT] = 0
	Total_core_cache_stats_breakdown[TEXTURE_ACC_R][HIT] = 0
	Total_core_cache_stats_breakdown[TEXTURE_ACC_R][HIT_RESERVED] = 0
	Total_core_cache_stats_breakdown[TEXTURE_ACC_R][MISS] = 0
	Total_core_cache_stats_breakdown[TEXTURE_ACC_R][RESERVATION_FAIL] = 0
	Total_core_cache_stats_breakdown[TEXTURE_ACC_R][SECTOR_MISS] = 0
	Total_core_cache_stats_breakdown[TEXTURE_ACC_R][MSHR_HIT] = 0
	Total_core_cache_stats_breakdown[GLOBAL_ACC_W][HIT] = 655736
	Total_core_cache_stats_breakdown[GLOBAL_ACC_W][HIT_RESERVED] = 0
	Total_core_cache_stats_breakdown[GLOBAL_ACC_W][MISS] = 72
	Total_core_cache_stats_breakdown[GLOBAL_ACC_W][RESERVATION_FAIL] = 1565
	Total_core_cache_stats_breakdown[GLOBAL_ACC_W][SECTOR_MISS] = 192
	Total_core_cache_stats_breakdown[GLOBAL_ACC_W][MSHR_HIT] = 0
	Total_core_cache_stats_breakdown[LOCAL_ACC_W][HIT] = 0
	Total_core_cache_stats_breakdown[LOCAL_ACC_W][HIT_RESERVED] = 0
	Total_core_cache_stats_breakdown[LOCAL_ACC_W][MISS] = 0
	Total_core_cache_stats_breakdown[LOCAL_ACC_W][RESERVATION_FAIL] = 0
	Total_core_cache_stats_breakdown[LOCAL_ACC_W][SECTOR_MISS] = 0
	Total_core_cache_stats_breakdown[LOCAL_ACC_W][MSHR_HIT] = 0
	Total_core_cache_stats_breakdown[L1_WRBK_ACC][HIT] = 0
	Total_core_cache_stats_breakdown[L1_WRBK_ACC][HIT_RESERVED] = 0
	Total_core_cache_stats_breakdown[L1_WRBK_ACC][MISS] = 0
	Total_core_cache_stats_breakdown[L1_WRBK_ACC][RESERVATION_FAIL] = 0
	Total_core_cache_stats_breakdown[L1_WRBK_ACC][SECTOR_MISS] = 0
	Total_core_cache_stats_breakdown[L1_WRBK_ACC][MSHR_HIT] = 0
	Total_core_cache_stats_breakdown[L2_WRBK_ACC][HIT] = 0
	Total_core_cache_stats_breakdown[L2_WRBK_ACC][HIT_RESERVED] = 0
	Total_core_cache_stats_breakdown[L2_WRBK_ACC][MISS] = 0
	Total_core_cache_stats_breakdown[L2_WRBK_ACC][RESERVATION_FAIL] = 0
	Total_core_cache_stats_breakdown[L2_WRBK_ACC][SECTOR_MISS] = 0
	Total_core_cache_stats_breakdown[L2_WRBK_ACC][MSHR_HIT] = 0
	Total_core_cache_stats_breakdown[INST_ACC_R][HIT] = 0
	Total_core_cache_stats_breakdown[INST_ACC_R][HIT_RESERVED] = 0
	Total_core_cache_stats_breakdown[INST_ACC_R][MISS] = 0
	Total_core_cache_stats_breakdown[INST_ACC_R][RESERVATION_FAIL] = 0
	Total_core_cache_stats_breakdown[INST_ACC_R][SECTOR_MISS] = 0
	Total_core_cache_stats_breakdown[INST_ACC_R][MSHR_HIT] = 0
	Total_core_cache_stats_breakdown[L1_WR_ALLOC_R][HIT] = 0
	Total_core_cache_stats_breakdown[L1_WR_ALLOC_R][HIT_RESERVED] = 0
	Total_core_cache_stats_breakdown[L1_WR_ALLOC_R][MISS] = 0
	Total_core_cache_stats_breakdown[L1_WR_ALLOC_R][RESERVATION_FAIL] = 0
	Total_core_cache_stats_breakdown[L1_WR_ALLOC_R][SECTOR_MISS] = 0
	Total_core_cache_stats_breakdown[L1_WR_ALLOC_R][MSHR_HIT] = 0
	Total_core_cache_stats_breakdown[L2_WR_ALLOC_R][HIT] = 0
	Total_core_cache_stats_breakdown[L2_WR_ALLOC_R][HIT_RESERVED] = 0
	Total_core_cache_stats_breakdown[L2_WR_ALLOC_R][MISS] = 0
	Total_core_cache_stats_breakdown[L2_WR_ALLOC_R][RESERVATION_FAIL] = 0
	Total_core_cache_stats_breakdown[L2_WR_ALLOC_R][SECTOR_MISS] = 0
	Total_core_cache_stats_breakdown[L2_WR_ALLOC_R][MSHR_HIT] = 0
	Total_core_cache_stats_breakdown[GLOBAL_ACC_R][TOTAL_ACCESS] = 638976
	Total_core_cache_stats_breakdown[GLOBAL_ACC_W][TOTAL_ACCESS] = 656000

Total_core_cache_fail_stats:
	Total_core_cache_fail_stats_breakdown[GLOBAL_ACC_R][MISS_QUEUE_FULL] = 17683
	Total_core_cache_fail_stats_breakdown[GLOBAL_ACC_W][MISS_QUEUE_FULL] = 1565
ctas_completed 8, Shader 0 warp_id issue ditsribution:
warp_id:
0, 1, 2, 3, 4, 5, 6, 7, 
distro:
6931, 6931, 6931, 6931, 6931, 6931, 6931, 6931, 
gpgpu_n_tot_thrd_icount = 14194688
gpgpu_n_tot_w_icount = 443584
gpgpu_n_stall_shd_mem = 245889
gpgpu_n_mem_read_local = 0
gpgpu_n_mem_write_local = 0
gpgpu_n_mem_read_global = 538624
gpgpu_n_mem_write_global = 656000
gpgpu_n_mem_texture = 0
gpgpu_n_mem_const = 0
gpgpu_n_load_insn  = 4194304
gpgpu_n_store_insn = 4198400
gpgpu_n_shmem_insn = 0
gpgpu_n_sstarr_insn = 0
gpgpu_n_tex_insn = 0
gpgpu_n_const_mem_insn = 0
gpgpu_n_param_mem_insn = 4096
gpgpu_n_shmem_bkconflict = 0
gpgpu_n_l1cache_bkconflict = 1
gpgpu_n_intrawarp_mshr_merge = 0
gpgpu_n_cmem_portconflict = 0
gpgpu_stall_shd_mem[c_mem][resource_stall] = 0
gpgpu_stall_shd_mem[s_mem][bk_conf] = 0
gpgpu_stall_shd_mem[gl_mem][resource_stall] = 1
gpgpu_stall_shd_mem[gl_mem][coal_stall] = 245888
gpgpu_stall_shd_mem[gl_mem][data_port_stall] = 0
gpu_reg_bank_conflict_stalls = 0
Warp Occupancy Distribution:
Stall:139	W0_Idle:7299	W0_Scoreboard:22223914	W1:0	W2:0	W3:0	W4:0	W5:0	W6:0	W7:0	W8:0	W9:0	W10:0	W11:0	W12:0	W13:0	W14:0	W15:0	W16:0	W17:0	W18:0	W19:0	W20:0	W21:0	W22:0	W23:0	W24:0	W25:0	W26:0	W27:0	W28:0	W29:0	W30:0	W31:0	W32:443584
single_issue_nums: WS0:110896	WS1:110896	WS2:110896	WS3:110896	
dual_issue_nums: WS0:0	WS1:0	WS2:0	WS3:0	
traffic_breakdown_coretomem[GLOBAL_ACC_R] = 4308992 {8:538624,}
traffic_breakdown_coretomem[GLOBAL_ACC_W] = 26240000 {40:656000,}
traffic_breakdown_memtocore[GLOBAL_ACC_R] = 21544960 {40:538624,}
traffic_breakdown_memtocore[GLOBAL_ACC_W] = 5248000 {8:656000,}
maxmflatency = 403 
max_icnt2mem_latency = 79 
maxmrqlatency = 82 
max_icnt2sh_latency = 14 
averagemflatency = 249 
avg_icnt2mem_latency = 27 
avg_mrq_latency = 4 
avg_icnt2sh_latency = 2 
mrq_lat_table:158104 	212501 	100185 	9745 	18259 	25740 	11 	0 	0 	0 	0 	0 	0 	0 	0 	0 	0 	0 	0 	0 	0 	0 	0 	0 	0 	0 	0 	0 	0 	0 	0 	0 	
dq_lat_table:0 	0 	0 	0 	0 	0 	0 	0 	0 	0 	0 	0 	0 	0 	0 	0 	0 	0 	0 	0 	0 	0 	0 	0 	0 	0 	0 	0 	0 	0 	0 	0 	
mf_lat_table:0 	0 	0 	0 	0 	0 	0 	657184 	537440 	0 	0 	0 	0 	0 	0 	0 	0 	0 	0 	0 	0 	0 	0 	0 	0 	0 	0 	0 	0 	0 	0 	0 	
icnt2mem_lat_table:0 	0 	0 	0 	1064373 	130013 	238 	0 	0 	0 	0 	0 	0 	0 	0 	0 	0 	0 	0 	0 	0 	0 	0 	0 	
icnt2sh_lat_table:0 	1173101 	21094 	429 	0 	0 	0 	0 	0 	0 	0 	0 	0 	0 	0 	0 	0 	0 	0 	0 	0 	0 	0 	0 	
mf_lat_pw_table:0 	0 	0 	0 	0 	0 	0 	1288 	129 	0 	0 	0 	0 	0 	0 	0 	0 	0 	0 	0 	0 	0 	0 	0 	0 	0 	0 	0 	0 	0 	0 	0 	
maximum concurrent accesses to same row:
dram[0]:        96        96        96        96        96        96        96        96        96        96        96        96        96        96        96        96 
dram[1]:        96        96        96        96        96        96        96        96        96        96        96        96        96        96        96        96 
dram[2]:        96        96        96        96        96        96        96        96        96        96        96        96        96        96        96        96 
dram[3]:        96        96        96        96        96        96        96        96        96        96        96        96        96        96        96        96 
dram[4]:        96        96        96        96        96        96        96        96        96        96        96        96        96        96        96        96 
dram[5]:        96        96        96        96        96        96        96        96        96        96        96        96        96        96        96        96 
dram[6]:        96        96        96        96        96        96        96        96        96        96        96        96        96        96        96        96 
dram[7]:        96        96        96        96        96        96        96        96        96        96        96        96        96        96        96        96 
dram[8]:        64        64        64        64        64        64        64        64        64        64        64        64        64        64        64        64 
dram[9]:        64        64        64        64        64        64        64        64        64        64        64        64        64        64        64        64 
dram[10]:        64        64        64        64        64        64        64        64        64        64        64        64        64        64        64        64 
dram[11]:        64        64        64        64        64        64        64        64        64        64        64        64        64        64        64        64 
dram[12]:        64        64        64        64        64        64        64        64        64        64        64        64        64        64        64        64 
dram[13]:        64        64        64        64        64        64        64        64        64        64        64        64        64        64        64        64 
dram[14]:        64        64        64        64        64        64        64        64        64        64        64        64        64        64        64        64 
dram[15]:        64        64        64        64        64        64        64        64        64        64        64        64        64        64        64        64 
dram[16]:        64        64        64        64        64        64        64        64        64        64        64        64        64        64        64        64 
dram[17]:        64        64        64        64        64        64        64        64        64        64        64        64        64        64        64        64 
dram[18]:        64        64        64        64        64        64        64        64        64        64        64        64        64        64        64        64 
dram[19]:        64        64        64        64        64        64        64        64        64        64        64        64        64        64        64        64 
dram[20]:        64        64        64        64        64        64        64        64        64        64        64        64        64        64        64        64 
dram[21]:        64        64        64        64        64        64        64        64        64        64        64        64        64        64        64        64 
dram[22]:        64        64        64        64        64        64        64        64        64        64        64        64        64        64        64        64 
dram[23]:        64        64        64        64        64        64        64        64        64        64        64        64        64        64        64        64 
maximum service time to same row:
dram[0]:     37512     37920     45806     46216     53629     54092     61984     62337     37589     37757     45826     46084     53343     53849     61670     62205 
dram[1]:     37522     37936     45823     46160     53668     54152     62007     62431     37598     37732     45881     46023     53469     54075     61739     62391 
dram[2]:     37543     37834     45801     46054     53485     54220     61853     62491     37608     37895     45886     46210     53568     53903     61851     62288 
dram[3]:     37499     37795     45811     45999     53608     54280     61939     62510     37602     37862     45881     46159     53644     53911     61933     62174 
dram[4]:     37408     38155     45737     46136     53785     53929     62105     62228     37561     37674     45773     45914     53451     53746     61728     62109 
dram[5]:     37532     38136     45737     46059     53741     53985     62045     62270     37580     37837     45729     45919     53489     53764     61810     62117 
dram[6]:     37510     37693     45719     45905     53735     54043     62062     62320     37649     38217     45954     46098     53544     53705     61854     62060 
dram[7]:     37500     37568     45715     45833     53783     54049     62108     62310     37577     38131     45869     46034     53598     53697     61913     62051 
dram[8]:     39483     39839     47790     48451     53952     54261     61768     62147     39421     39726     47613     47906     53875     54200     59849     60358 
dram[9]:     39522     39839     47781     48448     53954     54179     61764     62073     39464     39763     47663     47821     53944     54077     59810     60315 
dram[10]:     39442     39808     47790     48466     54129     54210     61766     62021     39412     39905     47674     48018     53979     54375     59806     60454 
dram[11]:     39501     39789     47809     48463     54033     54201     61748     61989     39513     39833     47669     47975     53952     54300     59839     60438 
dram[12]:     39555     40000     47902     48326     53762     54240     61794     62367     39623     40022     47730     48152     53985     54220     59886     60432 
dram[13]:     39543     39970     47886     48274     53693     54261     61778     62317     39410     39949     47747     48102     54021     54184     59913     60430 
dram[14]:     39391     39927     47921     48271     53906     54257     61824     62214     39648     40068     47767     48226     54109     54329     60014     60482 
dram[15]:     39389     39884     47969     48206     53812     54257     61821     62189     39594     40052     47818     48205     54162     54279     60072     60463 
dram[16]:     39427     40182     47746     48138     53444     53770     62301     62542     39298     39632     47718     48071     51593     52001     62187     62451 
dram[17]:     39444     40224     47769     48069     53527     53736     62262     62495     39356     39542     47707     48038     51501     51975     62263     62403 
dram[18]:     39459     40195     47649     47862     53468     53676     62433     62481     39324     39746     47706     48211     51480     52061     62360     62633 
dram[19]:     39474     40148     47650     47797     53479     53604     62358     62465     39362     39708     47743     48108     51510     52046     62285     62544 
dram[20]:     39669     40000     47776     48281     53524     54075     62075     62545     39457     39840     47793     48357     51573     52041     62323     62542 
dram[21]:     39586     39949     47882     48265     53503     54021     61947     62562     39388     39785     47749     48277     51611     52032     62378     62463 
dram[22]:     39590     39895     47768     48248     53525     53905     62199     62593     39432     39965     47740     48373     51658     52160     62427     62634 
dram[23]:     39624     39855     47767     48207     53526     53876     62128     62596     39460     39920     47755     48331     51717     52109     62446     62587 
average row accesses per activate:
dram[0]: 95.272728 95.272728 96.000000 96.000000 96.000000 96.000000 96.000000 96.000000 96.000000 96.000000 96.000000 96.000000 96.000000 96.000000 96.000000 96.000000 
dram[1]: 95.272728 95.272728 96.000000 96.000000 96.000000 96.000000 96.000000 96.000000 96.000000 96.000000 96.000000 96.000000 96.000000 96.000000 96.000000 96.000000 
dram[2]: 95.272728 95.272728 96.000000 96.000000 96.000000 96.000000 96.000000 96.000000 96.000000 96.000000 96.000000 96.000000 96.000000 96.000000 96.000000 96.000000 
dram[3]: 95.272728 95.272728 96.000000 96.000000 96.000000 96.000000 96.000000 96.000000 96.000000 96.000000 96.000000 96.000000 96.000000 96.000000 96.000000 96.000000 
dram[4]: 95.272728 95.272728 96.000000 96.000000 96.000000 96.000000 96.000000 96.000000 96.000000 96.000000 96.000000 96.000000 96.000000 96.000000 96.000000 96.000000 
dram[5]: 95.272728 95.272728 96.000000 96.000000 96.000000 96.000000 96.000000 96.000000 96.000000 96.000000 96.000000 96.000000 96.000000 96.000000 96.000000 96.000000 
dram[6]: 95.272728 95.272728 96.000000 96.000000 96.000000 96.000000 96.000000 96.000000 96.000000 96.000000 96.000000 96.000000 96.000000 96.000000 96.000000 96.000000 
dram[7]: 95.272728 95.272728 96.000000 96.000000 96.000000 96.000000 96.000000 96.000000 96.000000 96.000000 96.000000 96.000000 96.000000 96.000000 96.000000 96.000000 
dram[8]: 45.454544 46.181820 48.761906 48.761906 49.454544 49.454544 46.545456 46.545456 43.130436 47.238094 48.761906 48.761906 48.761906 48.761906 47.238094 47.238094 
dram[9]: 45.454544 46.181820 48.761906 48.761906 49.454544 49.454544 46.545456 46.545456 43.130436 47.238094 48.761906 48.761906 48.761906 48.761906 47.238094 47.238094 
dram[10]: 45.454544 46.181820 48.761906 48.761906 49.454544 49.454544 46.545456 46.545456 47.238094 47.238094 48.761906 48.761906 48.761906 48.761906 47.238094 47.238094 
dram[11]: 45.454544 46.181820 48.761906 48.761906 49.454544 49.454544 46.545456 46.545456 47.238094 47.238094 48.761906 48.761906 48.761906 48.761906 47.238094 47.238094 
dram[12]: 45.454544 46.181820 48.761906 48.761906 49.454544 49.454544 46.545456 46.545456 47.238094 47.238094 48.761906 48.761906 48.761906 48.761906 47.238094 47.238094 
dram[13]: 45.454544 46.181820 48.761906 48.761906 49.454544 49.454544 46.545456 46.545456 47.238094 47.238094 48.761906 48.761906 48.761906 48.761906 47.238094 47.238094 
dram[14]: 45.454544 46.181820 48.761906 48.761906 49.454544 49.454544 46.545456 46.545456 47.238094 47.238094 48.761906 48.761906 48.761906 48.761906 47.238094 47.238094 
dram[15]: 45.454544 46.181820 48.761906 48.761906 49.454544 49.454544 46.545456 46.545456 47.238094 47.238094 48.761906 48.761906 48.761906 48.761906 47.238094 47.238094 
dram[16]: 48.409092 49.090908 47.238094 47.238094 46.545456 46.545456 49.454544 49.454544 48.761906 48.761906 47.238094 47.238094 47.238094 47.238094 48.761906 48.761906 
dram[17]: 48.363636 49.090908 47.238094 47.238094 46.545456 46.545456 49.454544 49.454544 48.761906 48.761906 47.238094 47.238094 47.238094 47.238094 48.761906 48.761906 
dram[18]: 44.333332 49.090908 47.238094 47.238094 46.545456 46.545456 49.454544 49.454544 48.761906 48.761906 47.238094 47.238094 47.238094 47.238094 48.761906 48.761906 
dram[19]: 44.333332 49.090908 47.238094 47.238094 46.545456 46.545456 49.454544 49.454544 48.761906 48.761906 47.238094 47.238094 47.238094 47.238094 48.761906 48.761906 
dram[20]: 48.363636 49.090908 47.238094 47.238094 46.545456 46.545456 49.454544 49.454544 48.761906 48.761906 47.238094 47.238094 47.238094 47.238094 48.761906 48.761906 
dram[21]: 48.363636 49.090908 47.238094 47.238094 46.545456 46.545456 49.454544 49.454544 48.761906 48.761906 47.238094 47.238094 47.238094 47.238094 48.761906 48.761906 
dram[22]: 44.333332 49.090908 47.238094 47.238094 46.545456 46.545456 49.454544 49.454544 48.761906 48.761906 47.238094 47.238094 47.238094 47.238094 48.761906 48.761906 
dram[23]: 44.333332 49.090908 47.238094 47.238094 46.545456 46.545456 49.454544 49.454544 48.761906 48.761906 47.238094 47.238094 47.238094 47.238094 48.761906 48.761906 
average row locality = 524545/8220 = 63.813259
number of total memory accesses made:
dram[0]:         0         0         0         0         0         0         0         0         0         0         0         0         0         0         0         0 
dram[1]:         0         0         0         0         0         0         0         0         0         0         0         0         0         0         0         0 
dram[2]:         0         0         0         0         0         0         0         0         0         0         0         0         0         0         0         0 
dram[3]:         0         0         0         0         0         0         0         0         0         0         0         0         0         0         0         0 
dram[4]:         0         0         0         0         0         0         0         0         0         0         0         0         0         0         0         0 
dram[5]:         0         0         0         0         0         0         0         0         0         0         0         0         0         0         0         0 
dram[6]:         0         0         0         0         0         0         0         0         0         0         0         0         0         0         0         0 
dram[7]:         0         0         0         0         0         0         0         0         0         0         0         0         0         0         0         0 
dram[8]:         0         0         0         0         0         0         0         0         0         0         0         0         0         0         0         0 
dram[9]:         0         0         0         0         0         0         0         0         0         0         0         0         0         0         0         0 
dram[10]:         0         0         0         0         0         0         0         0         0         0         0         0         0         0         0         0 
dram[11]:         0         0         0         0         0         0         0         0         0         0         0         0         0         0         0         0 
dram[12]:         0         0         0         0         0         0         0         0         0         0         0         0         0         0         0         0 
dram[13]:         0         0         0         0         0         0         0         0         0         0         0         0         0         0         0         0 
dram[14]:         0         0         0         0         0         0         0         0         0         0         0         0         0         0         0         0 
dram[15]:         0         0         0         0         0         0         0         0         0         0         0         0         0         0         0         0 
dram[16]:         0         0         0         0         0         0         0         0         0         0         0         0         0         0         0         0 
dram[17]:         0         0         0         0         0         0         0         0         0         0         0         0         0         0         0         0 
dram[18]:         0         0         0         0         0         0         0         0         0         0         0         0         0         0         0         0 
dram[19]:         0         0         0         0         0         0         0         0         0         0         0         0         0         0         0         0 
dram[20]:         0         0         0         0         0         0         0         0         0         0         0         0         0         0         0         0 
dram[21]:         0         0         0         0         0         0         0         0         0         0         0         0         0         0         0         0 
dram[22]:         0         0         0         0         0         0         0         0         0         0         0         0         0         0         0         0 
dram[23]:         0         0         0         0         0         0         0         0         0         0         0         0         0         0         0         0 
total accesses: 0
min_bank_accesses = 0!
min_chip_accesses = 0!
number of total read accesses:
dram[0]:      2104      2104      2112      2112      2104      2104      2016      2016      2016      2016      2016      2016      2016      2016      2016      2016 
dram[1]:      2104      2104      2112      2112      2104      2104      2016      2016      2016      2016      2016      2016      2016      2016      2016      2016 
dram[2]:      2104      2104      2112      2112      2104      2104      2016      2016      2016      2016      2016      2016      2016      2016      2016      2016 
dram[3]:      2104      2104      2112      2112      2104      2104      2016      2016      2016      2016      2016      2016      2016      2016      2016      2016 
dram[4]:      2104      2104      2112      2112      2104      2104      2016      2016      2016      2016      2016      2016      2016      2016      2016      2016 
dram[5]:      2104      2104      2112      2112      2104      2104      2016      2016      2016      2016      2016      2016      2016      2016      2016      2016 
dram[6]:      2104      2104      2112      2112      2104      2104      2016      2016      2016      2016      2016      2016      2016      2016      2016      2016 
dram[7]:      2104      2104      2112      2112      2104      2104      2016      2016      2016      2016      2016      2016      2016      2016      2016      2016 
dram[8]:      1016      1024      1088      1088      1080      1072       960       960       960       960      1056      1056      1056      1056       960       960 
dram[9]:      1016      1024      1088      1088      1080      1072       960       960       960       960      1056      1056      1056      1056       960       960 
dram[10]:      1016      1024      1088      1088      1080      1072       960       960       960       960      1056      1056      1056      1056       960       960 
dram[11]:      1016      1024      1088      1088      1080      1072       960       960       960       960      1056      1056      1056      1056       960       960 
dram[12]:      1016      1024      1088      1088      1080      1072       960       960       960       960      1056      1056      1056      1056       960       960 
dram[13]:      1016      1024      1088      1088      1080      1072       960       960       960       960      1056      1056      1056      1056       960       960 
dram[14]:      1016      1024      1088      1088      1080      1072       960       960       960       960      1056      1056      1056      1056       960       960 
dram[15]:      1016      1024      1088      1088      1080      1072       960       960       960       960      1056      1056      1056      1056       960       960 
dram[16]:      1080      1088      1024      1024      1016      1009      1056      1056      1056      1056       960       960       960       960      1056      1056 
dram[17]:      1080      1088      1024      1024      1016      1008      1056      1056      1056      1056       960       960       960       960      1056      1056 
dram[18]:      1080      1088      1024      1024      1016      1008      1056      1056      1056      1056       960       960       960       960      1056      1056 
dram[19]:      1080      1088      1024      1024      1016      1008      1056      1056      1056      1056       960       960       960       960      1056      1056 
dram[20]:      1080      1088      1024      1024      1016      1008      1056      1056      1056      1056       960       960       960       960      1056      1056 
dram[21]:      1080      1088      1024      1024      1016      1008      1056      1056      1056      1056       960       960       960       960      1056      1056 
dram[22]:      1080      1088      1024      1024      1016      1008      1056      1056      1056      1056       960       960       960       960      1056      1056 
dram[23]:      1080      1088      1024      1024      1016      1008      1056      1056      1056      1056       960       960       960       960      1056      1056 
total dram reads = 524545
bank skew: 2112/960 = 2.20
chip skew: 32800/16352 = 2.01
number of total write accesses:
dram[0]:         0         0         0         0         0         0         0         0         0         0         0         0         0         0         0         0 
dram[1]:         0         0         0         0         0         0         0         0         0         0         0         0         0         0         0         0 
dram[2]:         0         0         0         0         0         0         0         0         0         0         0         0         0         0         0         0 
dram[3]:         0         0         0         0         0         0         0         0         0         0         0         0         0         0         0         0 
dram[4]:         0         0         0         0         0         0         0         0         0         0         0         0         0         0         0         0 
dram[5]:         0         0         0         0         0         0         0         0         0         0         0         0         0         0         0         0 
dram[6]:         0         0         0         0         0         0         0         0         0         0         0         0         0         0         0         0 
dram[7]:         0         0         0         0         0         0         0         0         0         0         0         0         0         0         0         0 
dram[8]:         0         0         0         0         0         0         0         0         0         0         0         0         0         0         0         0 
dram[9]:         0         0         0         0         0         0         0         0         0         0         0         0         0         0         0         0 
dram[10]:         0         0         0         0         0         0         0         0         0         0         0         0         0         0         0         0 
dram[11]:         0         0         0         0         0         0         0         0         0         0         0         0         0         0         0         0 
dram[12]:         0         0         0         0         0         0         0         0         0         0         0         0         0         0         0         0 
dram[13]:         0         0         0         0         0         0         0         0         0         0         0         0         0         0         0         0 
dram[14]:         0         0         0         0         0         0         0         0         0         0         0         0         0         0         0         0 
dram[15]:         0         0         0         0         0         0         0         0         0         0         0         0         0         0         0         0 
dram[16]:         0         0         0         0         0         0         0         0         0         0         0         0         0         0         0         0 
dram[17]:         0         0         0         0         0         0         0         0         0         0         0         0         0         0         0         0 
dram[18]:         0         0         0         0         0         0         0         0         0         0         0         0         0         0         0         0 
dram[19]:         0         0         0         0         0         0         0         0         0         0         0         0         0         0         0         0 
dram[20]:         0         0         0         0         0         0         0         0         0         0         0         0         0         0         0         0 
dram[21]:         0         0         0         0         0         0         0         0         0         0         0         0         0         0         0         0 
dram[22]:         0         0         0         0         0         0         0         0         0         0         0         0         0         0         0         0 
dram[23]:         0         0         0         0         0         0         0         0         0         0         0         0         0         0         0         0 
total dram writes = 0
min_bank_accesses = 0!
min_chip_accesses = 0!
average mf latency per bank:
dram[0]:        329       329       329       328       328       330       329       328       328       329       330      4205       328       328       330       328
dram[1]:        329       329       330       329       329       329       329       328       328       329       329      4205       327       329       330       328
dram[2]:        329       329       329       329       329       329       329       329       328       330      2272      4198       327       329       330       329
dram[3]:        328       328       329       329       328       330       328       327       329       329      2075      4206       328       329       329       329
dram[4]:        328       329       329       328       328       330       329       327       328       329      2269      4208       328       328       330       329
dram[5]:        329       328       329       328       329       329       329       328       328       329      2274      4208       328       329       330       328
dram[6]:        329       329       330       329       329       329       329       328       328       330      2268      4198       327       329       329       328
dram[7]:        328       329       329       328       328       329       329       327       328       329      2269      4203       327       329       330       329
dram[8]:        330       330       330       331       330       330       331       329       330       331       330       329       330       331       330       332
dram[9]:        330       330       331       329       330       331       330       329       330       332       331       330       329       330       331       331
dram[10]:        331       331       330       330       329       331       330       329       330       332       331       330       329       332       331       330
dram[11]:        330       330       331       331       330       332       330       330       329       332       330       330       327       329       332       331
dram[12]:        330       330       330       330       330       331       331       330       329       332       330       329       330       330       331       331
dram[13]:        330       332       331       330       331       332       330       329       330       331       331       330       328       330       332       330
dram[14]:        330       330       331       330       329       332       329       329       330       331       330       330       329       331       331       331
dram[15]:        330       329       330       330       330       332       331       328       330       331       330       331       328       330       330       331
dram[16]:        330       330       331       330       329       331       330       330       329       331       331      4402       329       331       332       330
dram[17]:        330       330       331       330       330       332       329       330       330       331       331      4405       330       331       331       331
dram[18]:        330       330       331       330       330       331       330       329       330       331       331      4401       329       330       331       331
dram[19]:        330       331       330       330       330       333       330       330       329       331       331      4395       330       331       330       332
dram[20]:        329       330       331       330       331       331       330       330       329       331      4402      4401       328       331       331       330
dram[21]:        331       330       330       330       330       332       329       330       329       330      4403      4396       330       330       331       331
dram[22]:        329       330       331       329       329       331       329       330       329       332       732      4394       329       330       331       331
dram[23]:        330       330       330       330       330       332       329       330       329       331       331      4400       329       331       330       331
maximum mf latency per bank:
dram[0]:        382       359       360       364       366       376       362       363       369       365       369       359       358       358       375       360
dram[1]:        384       360       365       364       361       364       360       359       360       362       362       363       355       360       366       360
dram[2]:        389       365       361       360       370       363       359       363       360       369       370       360       361       364       363       363
dram[3]:        368       366       360       363       363       365       358       361       359       364       373       368       358       364       361       359
dram[4]:        377       361       360       361       364       362       359       357       358       360       368       367       357       360       362       363
dram[5]:        378       362       361       359       364       360       364       362       360       359       376       362       359       359       363       362
dram[6]:        383       363       364       363       360       360       359       359       364       362       372       360       358       367       363       361
dram[7]:        378       361       364       360       370       360       359       362       360       362       360       364       363       361       362       360
dram[8]:        390       379       364       362       364       359       362       363       361       361       360       367       359       358       360       403
dram[9]:        390       378       361       360       361       362       358       365       360       367       373       365       362       362       360       363
dram[10]:        395       376       362       362       360       362       359       360       360       366       362       365       360       366       359       360
dram[11]:        380       374       364       362       360       367       358       361       362       358       360       366       358       357       361       361
dram[12]:        380       370       362       360       364       362       362       360       360       358       360       358       358       361       360       360
dram[13]:        376       369       364       388       366       362       358       359       358       360       361       360       359       359       360       367
dram[14]:        381       374       363       360       360       364       359       360       363       361       362       370       365       360       365       365
dram[15]:        383       365       361       359       367       368       359       359       360       358       361       359       357       357       361       365
dram[16]:        361       371       362       362       361       363       359       359       359       362       368       360       359       360       369       360
dram[17]:        368       370       358       362       361       360       357       362       360       362       359       361       359       360       360       360
dram[18]:        365       369       362       360       361       360       356       359       363       365       373       369       358       361       361       362
dram[19]:        362       366       363       359       360       362       356       358       363       363       360       360       359       359       364       384
dram[20]:        360       371       359       364       361       360       360       358       357       366       358       360       359       358       362       363
dram[21]:        364       370       367       359       362       360       360       364       356       364       360       361       359       361       366       361
dram[22]:        363       369       360       360       360       360       359       358       357       361       359       363       359       360       360       361
dram[23]:        366       366       359       368       371       360       360       360       359       360       364       366       360       358       360       361
Memory Partition 0: 
Cache L2_bank_000:
MSHR contents

Cache L2_bank_001:
MSHR contents

In Dram Latency Queue (total = 0): 
DRAM[0]: 16 bks, busW=16 BL=2 CL=12, tRRD=3 tCCD=1, tRCD=12 tRAS=28 tRP=12 tRC=40
n_cmd=502076 n_nop=468636 n_act=342 n_pre=326 n_ref_event=0 n_req=32800 n_rd=32800 n_rd_L2_A=0 n_write=0 n_wr_bk=0 bw_util=0.06533
n_activity=136374 dram_eff=0.2405
bk0: 2096a 500094i bk1: 2096a 500021i bk2: 2016a 500161i bk3: 2016a 500149i bk4: 2112a 500064i bk5: 2112a 500016i bk6: 2112a 500089i bk7: 2112a 500031i bk8: 2016a 500176i bk9: 2016a 500148i bk10: 2016a 500155i bk11: 2016a 500125i bk12: 2016a 500159i bk13: 2016a 500113i bk14: 2016a 500164i bk15: 2016a 500093i 

------------------------------------------------------------------------

Row_Buffer_Locality = 0.989573
Row_Buffer_Locality_read = 0.989573
Row_Buffer_Locality_write = -nan
Bank_Level_Parallism = 1.026486
Bank_Level_Parallism_Col = 1.022112
Bank_Level_Parallism_Ready = 1.011433
write_to_read_ratio_blp_rw_average = 0.000000
GrpLevelPara = 1.022009 

BW Util details:
bwutil = 0.065329 
total_CMD = 502076 
util_bw = 32800 
Wasted_Col = 26223 
Wasted_Row = 3577 
Idle = 439476 

BW Util Bottlenecks: 
RCDc_limit = 3978 
RCDWRc_limit = 0 
WTRc_limit = 0 
RTWc_limit = 0 
CCDLc_limit = 22387 
rwq = 0 
CCDLc_limit_alone = 22387 
WTRc_limit_alone = 0 
RTWc_limit_alone = 0 

Commands details: 
total_CMD = 502076 
n_nop = 468636 
Read = 32800 
Write = 0 
L2_Alloc = 0 
L2_WB = 0 
n_act = 342 
n_pre = 326 
n_ref = 0 
n_req = 32800 
total_req = 32800 

Dual Bus Interface Util: 
issued_total_row = 668 
issued_total_col = 32800 
Row_Bus_Util =  0.001330 
CoL_Bus_Util = 0.065329 
Either_Row_CoL_Bus_Util = 0.066603 
Issued_on_Two_Bus_Simul_Util = 0.000056 
issued_two_Eff = 0.000837 
queue_avg = 0.133528 


dram_util_bins: 0 0 0 0 0 0 0 0 0 0
dram_eff_bins: 0 0 0 0 0 0 0 0 0 0
mrqq: max=15 avg=0.133528
Memory Partition 1: 
Cache L2_bank_002:
MSHR contents

Cache L2_bank_003:
MSHR contents

In Dram Latency Queue (total = 0): 
DRAM[1]: 16 bks, busW=16 BL=2 CL=12, tRRD=3 tCCD=1, tRCD=12 tRAS=28 tRP=12 tRC=40
n_cmd=502076 n_nop=468638 n_act=342 n_pre=326 n_ref_event=0 n_req=32800 n_rd=32800 n_rd_L2_A=0 n_write=0 n_wr_bk=0 bw_util=0.06533
n_activity=136303 dram_eff=0.2406
bk0: 2096a 500085i bk1: 2096a 500038i bk2: 2016a 500151i bk3: 2016a 500113i bk4: 2112a 500071i bk5: 2112a 500019i bk6: 2112a 500077i bk7: 2112a 500018i bk8: 2016a 500165i bk9: 2016a 500111i bk10: 2016a 500154i bk11: 2016a 500142i bk12: 2016a 500173i bk13: 2016a 500124i bk14: 2016a 500162i bk15: 2016a 500118i 

------------------------------------------------------------------------

Row_Buffer_Locality = 0.989573
Row_Buffer_Locality_read = 0.989573
Row_Buffer_Locality_write = -nan
Bank_Level_Parallism = 1.033665
Bank_Level_Parallism_Col = 1.025117
Bank_Level_Parallism_Ready = 1.011402
write_to_read_ratio_blp_rw_average = 0.000000
GrpLevelPara = 1.024758 

BW Util details:
bwutil = 0.065329 
total_CMD = 502076 
util_bw = 32800 
Wasted_Col = 26067 
Wasted_Row = 3334 
Idle = 439875 

BW Util Bottlenecks: 
RCDc_limit = 3884 
RCDWRc_limit = 0 
WTRc_limit = 0 
RTWc_limit = 0 
CCDLc_limit = 22406 
rwq = 0 
CCDLc_limit_alone = 22406 
WTRc_limit_alone = 0 
RTWc_limit_alone = 0 

Commands details: 
total_CMD = 502076 
n_nop = 468638 
Read = 32800 
Write = 0 
L2_Alloc = 0 
L2_WB = 0 
n_act = 342 
n_pre = 326 
n_ref = 0 
n_req = 32800 
total_req = 32800 

Dual Bus Interface Util: 
issued_total_row = 668 
issued_total_col = 32800 
Row_Bus_Util =  0.001330 
CoL_Bus_Util = 0.065329 
[...]
Row_Buffer_Locality_read = 0.979126
Row_Buffer_Locality_write = -nan
Bank_Level_Parallism = 1.080854
Bank_Level_Parallism_Col = 1.068117
Bank_Level_Parallism_Ready = 1.043260
write_to_read_ratio_blp_rw_average = 0.000000
GrpLevelPara = 1.058558 

BW Util details:
bwutil = 0.039778 
total_CMD = 515465 
util_bw = 20504 
Wasted_Col = 17321 
Wasted_Row = 4189 
Idle = 473451 

BW Util Bottlenecks: 
RCDc_limit = 4699 
RCDWRc_limit = 0 
WTRc_limit = 0 
RTWc_limit = 0 
CCDLc_limit = 12976 
rwq = 0 
CCDLc_limit_alone = 12976 
WTRc_limit_alone = 0 
RTWc_limit_alone = 0 

Commands details: 
total_CMD = 515465 
n_nop = 494191 
Read = 20504 
Write = 0 
L2_Alloc = 0 
L2_WB = 0 
n_act = 428 
n_pre = 412 
n_ref = 0 
n_req = 20504 
total_req = 20504 

Dual Bus Interface Util: 
issued_total_row = 840 
issued_total_col = 20504 
Row_Bus_Util =  0.001630 
CoL_Bus_Util = 0.039778 
Either_Row_CoL_Bus_Util = 0.041271 
Issued_on_Two_Bus_Simul_Util = 0.000136 
issued_two_Eff = 0.003290 
queue_avg = 0.116031 


dram_util_bins: 0 0 0 0 0 0 0 0 0 0
dram_eff_bins: 0 0 0 0 0 0 0 0 0 0
mrqq: max=22 avg=0.116031
Memory Partition 21: 
Cache L2_bank_042:
MSHR contents

Cache L2_bank_043:
MSHR contents

In Dram Latency Queue (total = 0): 
DRAM[21]: 16 bks, busW=16 BL=2 CL=12, tRRD=3 tCCD=1, tRCD=12 tRAS=28 tRP=12 tRC=40
n_cmd=515465 n_nop=494198 n_act=428 n_pre=412 n_ref_event=0 n_req=20504 n_rd=20504 n_rd_L2_A=0 n_write=0 n_wr_bk=0 bw_util=0.03978
n_activity=84846 dram_eff=0.2417
bk0: 1312a 513890i bk1: 1336a 513850i bk2: 1248a 513994i bk3: 1248a 513923i bk4: 1344a 513853i bk5: 1344a 513829i bk6: 1344a 513884i bk7: 1344a 513836i bk8: 1248a 513998i bk9: 1248a 513973i bk10: 1248a 513958i bk11: 1248a 513939i bk12: 1248a 513984i bk13: 1248a 513938i bk14: 1248a 513969i bk15: 1248a 513939i 

------------------------------------------------------------------------

Row_Buffer_Locality = 0.979126
Row_Buffer_Locality_read = 0.979126
Row_Buffer_Locality_write = -nan
Bank_Level_Parallism = 1.079944
Bank_Level_Parallism_Col = 1.064370
Bank_Level_Parallism_Ready = 1.040187
write_to_read_ratio_blp_rw_average = 0.000000
GrpLevelPara = 1.056635 

BW Util details:
bwutil = 0.039778 
total_CMD = 515465 
util_bw = 20504 
Wasted_Col = 17218 
Wasted_Row = 4120 
Idle = 473623 

BW Util Bottlenecks: 
RCDc_limit = 4653 
RCDWRc_limit = 0 
WTRc_limit = 0 
RTWc_limit = 0 
CCDLc_limit = 12947 
rwq = 0 
CCDLc_limit_alone = 12947 
WTRc_limit_alone = 0 
RTWc_limit_alone = 0 

Commands details: 
total_CMD = 515465 
n_nop = 494198 
Read = 20504 
Write = 0 
L2_Alloc = 0 
L2_WB = 0 
n_act = 428 
n_pre = 412 
n_ref = 0 
n_req = 20504 
total_req = 20504 

Dual Bus Interface Util: 
issued_total_row = 840 
issued_total_col = 20504 
Row_Bus_Util =  0.001630 
CoL_Bus_Util = 0.039778 
Either_Row_CoL_Bus_Util = 0.041258 
Issued_on_Two_Bus_Simul_Util = 0.000149 
issued_two_Eff = 0.003621 
queue_avg = 0.116788 


dram_util_bins: 0 0 0 0 0 0 0 0 0 0
dram_eff_bins: 0 0 0 0 0 0 0 0 0 0
mrqq: max=22 avg=0.116788
Memory Partition 22: 
Cache L2_bank_044:
MSHR contents

Cache L2_bank_045:
MSHR contents

In Dram Latency Queue (total = 0): 
DRAM[22]: 16 bks, busW=16 BL=2 CL=12, tRRD=3 tCCD=1, tRCD=12 tRAS=28 tRP=12 tRC=40
n_cmd=515465 n_nop=494180 n_act=430 n_pre=414 n_ref_event=0 n_req=20504 n_rd=20504 n_rd_L2_A=0 n_write=0 n_wr_bk=0 bw_util=0.03978
n_activity=85205 dram_eff=0.2406
bk0: 1312a 513856i bk1: 1336a 513818i bk2: 1248a 513960i bk3: 1248a 513940i bk4: 1344a 513912i bk5: 1344a 513845i bk6: 1344a 513849i bk7: 1344a 513816i bk8: 1248a 513992i bk9: 1248a 513948i bk10: 1248a 513931i bk11: 1248a 513885i bk12: 1248a 513953i bk13: 1248a 513890i bk14: 1248a 513989i bk15: 1248a 513956i 

------------------------------------------------------------------------

Row_Buffer_Locality = 0.979028
Row_Buffer_Locality_read = 0.979028
Row_Buffer_Locality_write = -nan
Bank_Level_Parallism = 1.076103
Bank_Level_Parallism_Col = 1.064496
Bank_Level_Parallism_Ready = 1.042382
write_to_read_ratio_blp_rw_average = 0.000000
GrpLevelPara = 1.056480 

BW Util details:
bwutil = 0.039778 
total_CMD = 515465 
util_bw = 20504 
Wasted_Col = 17425 
Wasted_Row = 4264 
Idle = 473272 

BW Util Bottlenecks: 
RCDc_limit = 4770 
RCDWRc_limit = 0 
WTRc_limit = 0 
RTWc_limit = 0 
CCDLc_limit = 12949 
rwq = 0 
CCDLc_limit_alone = 12949 
WTRc_limit_alone = 0 
RTWc_limit_alone = 0 

Commands details: 
total_CMD = 515465 
n_nop = 494180 
Read = 20504 
Write = 0 
L2_Alloc = 0 
L2_WB = 0 
n_act = 430 
n_pre = 414 
n_ref = 0 
n_req = 20504 
total_req = 20504 

Dual Bus Interface Util: 
issued_total_row = 844 
issued_total_col = 20504 
Row_Bus_Util =  0.001637 
CoL_Bus_Util = 0.039778 
Either_Row_CoL_Bus_Util = 0.041293 
Issued_on_Two_Bus_Simul_Util = 0.000122 
issued_two_Eff = 0.002960 
queue_avg = 0.117366 


dram_util_bins: 0 0 0 0 0 0 0 0 0 0
dram_eff_bins: 0 0 0 0 0 0 0 0 0 0
mrqq: max=22 avg=0.117366
Memory Partition 23: 
Cache L2_bank_046:
MSHR contents

Cache L2_bank_047:
MSHR contents

In Dram Latency Queue (total = 0): 
DRAM[23]: 16 bks, busW=16 BL=2 CL=12, tRRD=3 tCCD=1, tRCD=12 tRAS=28 tRP=12 tRC=40
n_cmd=515465 n_nop=494183 n_act=430 n_pre=414 n_ref_event=0 n_req=20504 n_rd=20504 n_rd_L2_A=0 n_write=0 n_wr_bk=0 bw_util=0.03978
n_activity=84897 dram_eff=0.2415
bk0: 1312a 513842i bk1: 1336a 513816i bk2: 1248a 513999i bk3: 1248a 513972i bk4: 1344a 513902i bk5: 1344a 513854i bk6: 1344a 513861i bk7: 1344a 513856i bk8: 1248a 513994i bk9: 1248a 513951i bk10: 1248a 513989i bk11: 1248a 513934i bk12: 1248a 513975i bk13: 1248a 513924i bk14: 1248a 513970i bk15: 1248a 513943i 

------------------------------------------------------------------------

Row_Buffer_Locality = 0.979028
Row_Buffer_Locality_read = 0.979028
Row_Buffer_Locality_write = -nan
Bank_Level_Parallism = 1.073982
Bank_Level_Parallism_Col = 1.058156
Bank_Level_Parallism_Ready = 1.035554
write_to_read_ratio_blp_rw_average = 0.000000
GrpLevelPara = 1.051869 

BW Util details:
bwutil = 0.039778 
total_CMD = 515465 
util_bw = 20504 
Wasted_Col = 17393 
Wasted_Row = 4154 
Idle = 473414 

BW Util Bottlenecks: 
RCDc_limit = 4709 
RCDWRc_limit = 0 
WTRc_limit = 0 
RTWc_limit = 0 
CCDLc_limit = 13007 
rwq = 0 
CCDLc_limit_alone = 13007 
WTRc_limit_alone = 0 
RTWc_limit_alone = 0 

Commands details: 
total_CMD = 515465 
n_nop = 494183 
Read = 20504 
Write = 0 
L2_Alloc = 0 
L2_WB = 0 
n_act = 430 
n_pre = 414 
n_ref = 0 
n_req = 20504 
total_req = 20504 

Dual Bus Interface Util: 
issued_total_row = 844 
issued_total_col = 20504 
Row_Bus_Util =  0.001637 
CoL_Bus_Util = 0.039778 
Either_Row_CoL_Bus_Util = 0.041287 
Issued_on_Two_Bus_Simul_Util = 0.000128 
issued_two_Eff = 0.003101 
queue_avg = 0.117100 


dram_util_bins: 0 0 0 0 0 0 0 0 0 0
dram_eff_bins: 0 0 0 0 0 0 0 0 0 0
mrqq: max=22 avg=0.1171

========= L2 cache stats =========
L2_cache_bank[0]: Access = 27188, Miss = 20704, Miss_rate = 0.762, Pending_hits = 989, Reservation_fails = 0
L2_cache_bank[1]: Access = 68206, Miss = 20272, Miss_rate = 0.297, Pending_hits = 936, Reservation_fails = 0
L2_cache_bank[2]: Access = 27178, Miss = 20704, Miss_rate = 0.762, Pending_hits = 963, Reservation_fails = 0
L2_cache_bank[3]: Access = 68179, Miss = 20272, Miss_rate = 0.297, Pending_hits = 941, Reservation_fails = 0
L2_cache_bank[4]: Access = 27196, Miss = 20704, Miss_rate = 0.761, Pending_hits = 972, Reservation_fails = 0
L2_cache_bank[5]: Access = 89047, Miss = 20273, Miss_rate = 0.228, Pending_hits = 899, Reservation_fails = 0
L2_cache_bank[6]: Access = 27196, Miss = 20704, Miss_rate = 0.761, Pending_hits = 975, Reservation_fails = 0
L2_cache_bank[7]: Access = 86964, Miss = 20272, Miss_rate = 0.233, Pending_hits = 899, Reservation_fails = 0
L2_cache_bank[8]: Access = 27179, Miss = 20704, Miss_rate = 0.762, Pending_hits = 966, Reservation_fails = 0
L2_cache_bank[9]: Access = 89029, Miss = 20272, Miss_rate = 0.228, Pending_hits = 915, Reservation_fails = 0
L2_cache_bank[10]: Access = 27182, Miss = 20704, Miss_rate = 0.762, Pending_hits = 973, Reservation_fails = 0
L2_cache_bank[11]: Access = 88956, Miss = 20272, Miss_rate = 0.228, Pending_hits = 912, Reservation_fails = 0
L2_cache_bank[12]: Access = 27197, Miss = 20704, Miss_rate = 0.761, Pending_hits = 987, Reservation_fails = 0
L2_cache_bank[13]: Access = 89035, Miss = 20272, Miss_rate = 0.228, Pending_hits = 920, Reservation_fails = 0
L2_cache_bank[14]: Access = 27196, Miss = 20704, Miss_rate = 0.761, Pending_hits = 996, Reservation_fails = 0
L2_cache_bank[15]: Access = 89017, Miss = 20272, Miss_rate = 0.228, Pending_hits = 939, Reservation_fails = 0
L2_cache_bank[16]: Access = 13585, Miss = 10352, Miss_rate = 0.762, Pending_hits = 442, Reservation_fails = 0
L2_cache_bank[17]: Access = 13257, Miss = 10128, Miss_rate = 0.764, Pending_hits = 423, Reservation_fails = 0
L2_cache_bank[18]: Access = 13592, Miss = 10352, Miss_rate = 0.762, Pending_hits = 445, Reservation_fails = 0
L2_cache_bank[19]: Access = 13248, Miss = 10128, Miss_rate = 0.764, Pending_hits = 408, Reservation_fails = 0
L2_cache_bank[20]: Access = 13591, Miss = 10352, Miss_rate = 0.762, Pending_hits = 445, Reservation_fails = 0
L2_cache_bank[21]: Access = 13260, Miss = 10128, Miss_rate = 0.764, Pending_hits = 430, Reservation_fails = 0
L2_cache_bank[22]: Access = 13581, Miss = 10352, Miss_rate = 0.762, Pending_hits = 426, Reservation_fails = 0
L2_cache_bank[23]: Access = 13260, Miss = 10128, Miss_rate = 0.764, Pending_hits = 431, Reservation_fails = 0
L2_cache_bank[24]: Access = 13587, Miss = 10352, Miss_rate = 0.762, Pending_hits = 440, Reservation_fails = 0
L2_cache_bank[25]: Access = 13257, Miss = 10128, Miss_rate = 0.764, Pending_hits = 418, Reservation_fails = 0
L2_cache_bank[26]: Access = 13590, Miss = 10352, Miss_rate = 0.762, Pending_hits = 442, Reservation_fails = 0
L2_cache_bank[27]: Access = 13250, Miss = 10128, Miss_rate = 0.764, Pending_hits = 418, Reservation_fails = 0
L2_cache_bank[28]: Access = 13586, Miss = 10352, Miss_rate = 0.762, Pending_hits = 447, Reservation_fails = 0
L2_cache_bank[29]: Access = 13253, Miss = 10128, Miss_rate = 0.764, Pending_hits = 411, Reservation_fails = 0
L2_cache_bank[30]: Access = 13586, Miss = 10352, Miss_rate = 0.762, Pending_hits = 444, Reservation_fails = 0
L2_cache_bank[31]: Access = 13255, Miss = 10128, Miss_rate = 0.764, Pending_hits = 420, Reservation_fails = 0
L2_cache_bank[32]: Access = 13595, Miss = 10352, Miss_rate = 0.761, Pending_hits = 445, Reservation_fails = 0
L2_cache_bank[33]: Access = 34079, Miss = 10153, Miss_rate = 0.298, Pending_hits = 404, Reservation_fails = 0
L2_cache_bank[34]: Access = 13602, Miss = 10352, Miss_rate = 0.761, Pending_hits = 433, Reservation_fails = 0
L2_cache_bank[35]: Access = 34129, Miss = 10152, Miss_rate = 0.297, Pending_hits = 426, Reservation_fails = 0
L2_cache_bank[36]: Access = 13587, Miss = 10352, Miss_rate = 0.762, Pending_hits = 427, Reservation_fails = 0
L2_cache_bank[37]: Access = 34102, Miss = 10152, Miss_rate = 0.298, Pending_hits = 416, Reservation_fails = 0
L2_cache_bank[38]: Access = 13588, Miss = 10352, Miss_rate = 0.762, Pending_hits = 432, Reservation_fails = 0
L2_cache_bank[39]: Access = 34113, Miss = 10152, Miss_rate = 0.298, Pending_hits = 432, Reservation_fails = 0
L2_cache_bank[40]: Access = 13583, Miss = 10352, Miss_rate = 0.762, Pending_hits = 430, Reservation_fails = 0
L2_cache_bank[41]: Access = 54984, Miss = 10152, Miss_rate = 0.185, Pending_hits = 411, Reservation_fails = 0
L2_cache_bank[42]: Access = 13602, Miss = 10352, Miss_rate = 0.761, Pending_hits = 446, Reservation_fails = 0
L2_cache_bank[43]: Access = 54990, Miss = 10152, Miss_rate = 0.185, Pending_hits = 420, Reservation_fails = 0
L2_cache_bank[44]: Access = 13594, Miss = 10352, Miss_rate = 0.762, Pending_hits = 444, Reservation_fails = 0
L2_cache_bank[45]: Access = 36199, Miss = 10152, Miss_rate = 0.280, Pending_hits = 399, Reservation_fails = 0
L2_cache_bank[46]: Access = 13582, Miss = 10352, Miss_rate = 0.762, Pending_hits = 438, Reservation_fails = 0
L2_cache_bank[47]: Access = 34114, Miss = 10152, Miss_rate = 0.298, Pending_hits = 426, Reservation_fails = 0
L2_total_cache_accesses = 1526126
L2_total_cache_misses = 655682
L2_total_cache_miss_rate = 0.4296
L2_total_cache_pending_hits = 28901
L2_total_cache_reservation_fails = 0
L2_total_cache_breakdown:
	L2_cache_stats_breakdown[GLOBAL_ACC_R][HIT] = 25294
	L2_cache_stats_breakdown[GLOBAL_ACC_R][HIT_RESERVED] = 15327
	L2_cache_stats_breakdown[GLOBAL_ACC_R][MISS] = 32785
	L2_cache_stats_breakdown[GLOBAL_ACC_R][RESERVATION_FAIL] = 0
	L2_cache_stats_breakdown[GLOBAL_ACC_R][SECTOR_MISS] = 98352
	L2_cache_stats_breakdown[GLOBAL_ACC_R][MSHR_HIT] = 15327
	L2_cache_stats_breakdown[LOCAL_ACC_R][HIT] = 0
	L2_cache_stats_breakdown[LOCAL_ACC_R][HIT_RESERVED] = 0
	L2_cache_stats_breakdown[LOCAL_ACC_R][MISS] = 0
	L2_cache_stats_breakdown[LOCAL_ACC_R][RESERVATION_FAIL] = 0
	L2_cache_stats_breakdown[LOCAL_ACC_R][SECTOR_MISS] = 0
	L2_cache_stats_breakdown[LOCAL_ACC_R][MSHR_HIT] = 0
	L2_cache_stats_breakdown[CONST_ACC_R][HIT] = 0
	L2_cache_stats_breakdown[CONST_ACC_R][HIT_RESERVED] = 0
	L2_cache_stats_breakdown[CONST_ACC_R][MISS] = 0
	L2_cache_stats_breakdown[CONST_ACC_R][RESERVATION_FAIL] = 0
	L2_cache_stats_breakdown[CONST_ACC_R][SECTOR_MISS] = 0
	L2_cache_stats_breakdown[CONST_ACC_R][MSHR_HIT] = 0
	L2_cache_stats_breakdown[TEXTURE_ACC_R][HIT] = 0
	L2_cache_stats_breakdown[TEXTURE_ACC_R][HIT_RESERVED] = 0
	L2_cache_stats_breakdown[TEXTURE_ACC_R][MISS] = 0
	L2_cache_stats_breakdown[TEXTURE_ACC_R][RESERVATION_FAIL] = 0
	L2_cache_stats_breakdown[TEXTURE_ACC_R][SECTOR_MISS] = 0
	L2_cache_stats_breakdown[TEXTURE_ACC_R][MSHR_HIT] = 0
	L2_cache_stats_breakdown[GLOBAL_ACC_W][HIT] = 159744
	L2_cache_stats_breakdown[GLOBAL_ACC_W][HIT_RESERVED] = 0
	L2_cache_stats_breakdown[GLOBAL_ACC_W][MISS] = 0
	L2_cache_stats_breakdown[GLOBAL_ACC_W][RESERVATION_FAIL] = 0
	L2_cache_stats_breakdown[GLOBAL_ACC_W][SECTOR_MISS] = 0
	L2_cache_stats_breakdown[GLOBAL_ACC_W][MSHR_HIT] = 0
	L2_cache_stats_breakdown[LOCAL_ACC_W][HIT] = 0
	L2_cache_stats_breakdown[LOCAL_ACC_W][HIT_RESERVED] = 0
	L2_cache_stats_breakdown[LOCAL_ACC_W][MISS] = 0
	L2_cache_stats_breakdown[LOCAL_ACC_W][RESERVATION_FAIL] = 0
	L2_cache_stats_breakdown[LOCAL_ACC_W][SECTOR_MISS] = 0
	L2_cache_stats_breakdown[LOCAL_ACC_W][MSHR_HIT] = 0
	L2_cache_stats_breakdown[L1_WRBK_ACC][HIT] = 0
	L2_cache_stats_breakdown[L1_WRBK_ACC][HIT_RESERVED] = 0
	L2_cache_stats_breakdown[L1_WRBK_ACC][MISS] = 0
	L2_cache_stats_breakdown[L1_WRBK_ACC][RESERVATION_FAIL] = 0
	L2_cache_stats_breakdown[L1_WRBK_ACC][SECTOR_MISS] = 0
	L2_cache_stats_breakdown[L1_WRBK_ACC][MSHR_HIT] = 0
	L2_cache_stats_breakdown[L2_WRBK_ACC][HIT] = 0
	L2_cache_stats_breakdown[L2_WRBK_ACC][HIT_RESERVED] = 0
	L2_cache_stats_breakdown[L2_WRBK_ACC][MISS] = 0
	L2_cache_stats_breakdown[L2_WRBK_ACC][RESERVATION_FAIL] = 0
	L2_cache_stats_breakdown[L2_WRBK_ACC][SECTOR_MISS] = 0
	L2_cache_stats_breakdown[L2_WRBK_ACC][MSHR_HIT] = 0
	L2_cache_stats_breakdown[INST_ACC_R][HIT] = 0
	L2_cache_stats_breakdown[INST_ACC_R][HIT_RESERVED] = 0
	L2_cache_stats_breakdown[INST_ACC_R][MISS] = 0
	L2_cache_stats_breakdown[INST_ACC_R][RESERVATION_FAIL] = 0
	L2_cache_stats_breakdown[INST_ACC_R][SECTOR_MISS] = 0
	L2_cache_stats_breakdown[INST_ACC_R][MSHR_HIT] = 0
	L2_cache_stats_breakdown[L1_WR_ALLOC_R][HIT] = 0
	L2_cache_stats_breakdown[L1_WR_ALLOC_R][HIT_RESERVED] = 0
	L2_cache_stats_breakdown[L1_WR_ALLOC_R][MISS] = 0
	L2_cache_stats_breakdown[L1_WR_ALLOC_R][RESERVATION_FAIL] = 0
	L2_cache_stats_breakdown[L1_WR_ALLOC_R][SECTOR_MISS] = 0
	L2_cache_stats_breakdown[L1_WR_ALLOC_R][MSHR_HIT] = 0
	L2_cache_stats_breakdown[L2_WR_ALLOC_R][HIT] = 0
	L2_cache_stats_breakdown[L2_WR_ALLOC_R][HIT_RESERVED] = 0
	L2_cache_stats_breakdown[L2_WR_ALLOC_R][MISS] = 0
	L2_cache_stats_breakdown[L2_WR_ALLOC_R][RESERVATION_FAIL] = 0
	L2_cache_stats_breakdown[L2_WR_ALLOC_R][SECTOR_MISS] = 0
	L2_cache_stats_breakdown[L2_WR_ALLOC_R][MSHR_HIT] = 0
	L2_cache_stats_breakdown[GLOBAL_ACC_R][TOTAL_ACCESS] = 171758
	L2_cache_stats_breakdown[GLOBAL_ACC_W][TOTAL_ACCESS] = 159744
L2_total_cache_reservation_fail_breakdown:
L2_cache_data_port_util = 0.024
L2_cache_fill_port_util = 0.019

icnt_total_pkts_mem_to_simt=1526126
icnt_total_pkts_simt_to_mem=1526126
LD_mem_lat_dist  0 0 0 0 0 0 0 0 0 0 0 0 0 0 0 0 0 0 0 0 0 0 0 0 0 0 0
ST_mem_lat_dist  0 0 0 0 0 0 0 0 0 0 0 0 0 0 0 0 0 0 0 0 0 0 0 0 0 0 0
----------------------------Interconnect-DETAILS--------------------------------
Req_Network_injected_packets_num = 1526126
Req_Network_cycles = 727716
Req_Network_injected_packets_per_cycle =       2.0971 
Req_Network_conflicts_per_cycle =       0.5969
Req_Network_conflicts_per_cycle_util =       0.6792
Req_Bank_Level_Parallism =       2.3861
Req_Network_in_buffer_full_per_cycle =       0.0010
Req_Network_in_buffer_avg_util =       5.5859
Req_Network_out_buffer_full_per_cycle =       0.0035
Req_Network_out_buffer_avg_util =       0.8204

Reply_Network_injected_packets_num = 1526126
Reply_Network_cycles = 727716
Reply_Network_injected_packets_per_cycle =        2.0971
Reply_Network_conflicts_per_cycle =        0.4873
Reply_Network_conflicts_per_cycle_util =       0.5780
Reply_Bank_Level_Parallism =       2.4877
Reply_Network_in_buffer_full_per_cycle =       0.0000
Reply_Network_in_buffer_avg_util =       0.4570
Reply_Network_out_buffer_full_per_cycle =       0.0000
Reply_Network_out_buffer_avg_util =       0.0524
----------------------------END-of-Interconnect-DETAILS-------------------------


gpgpu_simulation_time = 0 days, 0 hrs, 9 min, 38 sec (578 sec)
gpgpu_simulation_rate = 77161 (inst/sec)
gpgpu_simulation_rate = 1259 (cycle/sec)
gpgpu_silicon_slowdown = 953137x
GPGPU-Sim: synchronize waiting for inactive GPU simulation
GPGPU-Sim API: Stream Manager State
GPGPU-Sim: detected inactive GPU simulation thread
GPGPU-Sim PTX: Setting up arguments for 8 bytes starting at 0x7fffe2b3b248..
GPGPU-Sim PTX: Setting up arguments for 8 bytes starting at 0x7fffe2b3b240..

GPGPU-Sim PTX: cudaLaunch for 0x0x621863801cfd (mode=performance simulation) on stream 0
GPGPU-Sim PTX: finding reconvergence points for '_Z12covar_kernelPfS_'...
GPGPU-Sim PTX: Finding dominators for '_Z12covar_kernelPfS_'...
GPGPU-Sim PTX: Finding immediate dominators for '_Z12covar_kernelPfS_'...
GPGPU-Sim PTX: Finding postdominators for '_Z12covar_kernelPfS_'...
GPGPU-Sim PTX: Finding immediate postdominators for '_Z12covar_kernelPfS_'...
GPGPU-Sim PTX: pre-decoding instructions for '_Z12covar_kernelPfS_'...
GPGPU-Sim PTX: reconvergence points for _Z12covar_kernelPfS_...
GPGPU-Sim PTX:  1 (potential) branch divergence @  PC=0x390 (COVAR.1.sm_30.ptx:177) @%p3 bra BB2_5;
GPGPU-Sim PTX:    immediate post dominator      @  PC=0x580 (COVAR.1.sm_30.ptx:247) ret;
GPGPU-Sim PTX:  2 (potential) branch divergence @  PC=0x540 (COVAR.1.sm_30.ptx:236) @%p4 bra BB2_3;
GPGPU-Sim PTX:    immediate post dominator      @  PC=0x548 (COVAR.1.sm_30.ptx:238) mad.lo.s32 %r20, %r21, 2049, %r4;
GPGPU-Sim PTX:  3 (potential) branch divergence @  PC=0x578 (COVAR.1.sm_30.ptx:244) @%p5 bra BB2_2;
GPGPU-Sim PTX:    immediate post dominator      @  PC=0x580 (COVAR.1.sm_30.ptx:247) ret;
GPGPU-Sim PTX: ... end of reconvergence points for _Z12covar_kernelPfS_
GPGPU-Sim PTX: ... done pre-decoding instructions for '_Z12covar_kernelPfS_'.
GPGPU-Sim PTX: pushing kernel '_Z12covar_kernelPfS_' to stream 0, gridDim= (8,1,1) blockDim = (256,1,1) 
GPGPU-Sim uArch: Shader 10 bind to kernel 3 '_Z12covar_kernelPfS_'
GPGPU-Sim uArch: CTA/core = 8, limited by: threads
GPGPU-Sim: Reconfigure L1 cache to 128KB
GPGPU-Sim uArch: Shader 13 bind to kernel 3 '_Z12covar_kernelPfS_'
GPGPU-Sim uArch: Shader 15 bind to kernel 3 '_Z12covar_kernelPfS_'
GPGPU-Sim uArch: Shader 17 bind to kernel 3 '_Z12covar_kernelPfS_'
GPGPU-Sim uArch: Shader 18 bind to kernel 3 '_Z12covar_kernelPfS_'
GPGPU-Sim uArch: Shader 21 bind to kernel 3 '_Z12covar_kernelPfS_'
GPGPU-Sim uArch: Shader 23 bind to kernel 3 '_Z12covar_kernelPfS_'
GPGPU-Sim uArch: Shader 25 bind to kernel 3 '_Z12covar_kernelPfS_'
