self exe links to: /workspace/gpgpu-sim_simulations/benchmarks/src/cuda/bin/release/GEMM
self exe links to: /workspace/gpgpu-sim_simulations/benchmarks/src/cuda/bin/release/GEMM
10.1


        *** GPGPU-Sim Simulator Version 4.2.0  [build gpgpu-sim_git-commit-a4ce3fe_modified_0.0] ***


GPGPU-Sim PTX: simulation mode 0 (can change with PTX_SIM_MODE_FUNC environment variable:
               1=functional simulation only, 0=detailed performance simulator)
GPGPU-Sim PTX: overriding embedded ptx with ptx file (PTX_SIM_USE_PTX_FILE is set)
GPGPU-Sim: Configuration options:

-save_embedded_ptx                      0 # saves ptx files embedded in binary as <n>.ptx
-keep                                   0 # keep intermediate files created by GPGPU-Sim when interfacing with external programs
-gpgpu_ptx_save_converted_ptxplus                    0 # Saved converted ptxplus to a file
-gpgpu_occupancy_sm_number                   70 # The SM number to pass to ptxas when getting register usage for computing GPU occupancy. This parameter is required in the config.
-ptx_opcode_latency_int      4,13,4,5,145,32 # Opcode latencies for integers <ADD,MAX,MUL,MAD,DIV,SHFL>Default 1,1,19,25,145,32
-ptx_opcode_latency_fp          4,13,4,5,39 # Opcode latencies for single precision floating points <ADD,MAX,MUL,MAD,DIV>Default 1,1,1,1,30
-ptx_opcode_latency_dp         8,19,8,8,330 # Opcode latencies for double precision floating points <ADD,MAX,MUL,MAD,DIV>Default 8,8,8,8,335
-ptx_opcode_latency_sfu                  100 # Opcode latencies for SFU instructionsDefault 8
-ptx_opcode_latency_tesnor                   64 # Opcode latencies for Tensor instructionsDefault 64
-ptx_opcode_initiation_int          2,2,2,2,8,4 # Opcode initiation intervals for integers <ADD,MAX,MUL,MAD,DIV,SHFL>Default 1,1,4,4,32,4
-ptx_opcode_initiation_fp            2,2,2,2,4 # Opcode initiation intervals for single precision floating points <ADD,MAX,MUL,MAD,DIV>Default 1,1,1,1,5
-ptx_opcode_initiation_dp          4,4,4,4,130 # Opcode initiation intervals for double precision floating points <ADD,MAX,MUL,MAD,DIV>Default 8,8,8,8,130
-ptx_opcode_initiation_sfu                    8 # Opcode initiation intervals for sfu instructionsDefault 8
-ptx_opcode_initiation_tensor                   64 # Opcode initiation intervals for tensor instructionsDefault 64
-cdp_latency         7200,8000,100,12000,1600 # CDP API latency <cudaStreamCreateWithFlags, cudaGetParameterBufferV2_init_perWarp, cudaGetParameterBufferV2_perKernel, cudaLaunchDeviceV2_init_perWarp, cudaLaunchDevicV2_perKernel>Default 7200,8000,100,12000,1600
-network_mode                           2 # Interconnection network mode
-inter_config_file                   mesh # Interconnection network config file
-icnt_in_buffer_limit                  512 # in_buffer_limit
-icnt_out_buffer_limit                  512 # out_buffer_limit
-icnt_subnets                           2 # subnets
-icnt_arbiter_algo                      1 # arbiter_algo
-icnt_verbose                           0 # inct_verbose
-icnt_grant_cycles                      1 # grant_cycles
-gpgpu_ptx_use_cuobjdump                    1 # Use cuobjdump to extract ptx and sass from binaries
-gpgpu_experimental_lib_support                    0 # Try to extract code from cuda libraries [Broken because of unknown cudaGetExportTable]
-checkpoint_option                      0 #  checkpointing flag (0 = no checkpoint)
-checkpoint_kernel                      1 #  checkpointing during execution of which kernel (1- 1st kernel)
-checkpoint_CTA                         0 #  checkpointing after # of CTA (< less than total CTA)
-resume_option                          0 #  resume flag (0 = no resume)
-resume_kernel                          0 #  Resume from which kernel (1= 1st kernel)
-resume_CTA                             0 #  resume from which CTA 
-checkpoint_CTA_t                       0 #  resume from which CTA 
-checkpoint_insn_Y                      0 #  resume from which CTA 
-gpgpu_ptx_convert_to_ptxplus                    0 # Convert SASS (native ISA) to ptxplus and run ptxplus
-gpgpu_ptx_force_max_capability                   70 # Force maximum compute capability
-gpgpu_ptx_inst_debug_to_file                    0 # Dump executed instructions' debug information to file
-gpgpu_ptx_inst_debug_file       inst_debug.txt # Executed instructions' debug output file
-gpgpu_ptx_inst_debug_thread_uid                    1 # Thread UID for executed instructions' debug output
-gpgpu_simd_model                       1 # 1 = post-dominator
-gpgpu_shader_core_pipeline              2048:32 # shader core pipeline config, i.e., {<nthread>:<warpsize>}
-gpgpu_tex_cache:l1  N:4:128:256,L:R:m:N:L,T:512:8,128:2 # per-shader L1 texture cache  (READ-ONLY) config  {<nsets>:<bsize>:<assoc>,<rep>:<wr>:<alloc>:<wr_alloc>,<mshr>:<N>:<merge>,<mq>:<rf>}
-gpgpu_const_cache:l1 N:128:64:8,L:R:f:N:L,S:2:64,4 # per-shader L1 constant memory cache  (READ-ONLY) config  {<nsets>:<bsize>:<assoc>,<rep>:<wr>:<alloc>:<wr_alloc>,<mshr>:<N>:<merge>,<mq>} 
-gpgpu_cache:il1     N:64:128:16,L:R:f:N:L,S:2:48,4 # shader L1 instruction cache config  {<nsets>:<bsize>:<assoc>,<rep>:<wr>:<alloc>:<wr_alloc>,<mshr>:<N>:<merge>,<mq>} 
-gpgpu_cache:dl1     S:4:128:64,L:T:m:L:L,A:512:8,16:0,32 # per-shader L1 data cache config  {<nsets>:<bsize>:<assoc>,<rep>:<wr>:<alloc>:<wr_alloc>,<mshr>:<N>:<merge>,<mq> | none}
-gpgpu_l1_cache_write_ratio                   25 # L1D write ratio
-gpgpu_l1_banks                         4 # The number of L1 cache banks
-gpgpu_l1_banks_byte_interleaving                   32 # l1 banks byte interleaving granularity
-gpgpu_l1_banks_hashing_function                    0 # l1 banks hashing function
-gpgpu_l1_latency                      20 # L1 Hit Latency
-gpgpu_smem_latency                    20 # smem Latency
-gpgpu_cache:dl1PrefL1                 none # per-shader L1 data cache config  {<nsets>:<bsize>:<assoc>,<rep>:<wr>:<alloc>:<wr_alloc>,<mshr>:<N>:<merge>,<mq> | none}
-gpgpu_cache:dl1PrefShared                 none # per-shader L1 data cache config  {<nsets>:<bsize>:<assoc>,<rep>:<wr>:<alloc>:<wr_alloc>,<mshr>:<N>:<merge>,<mq> | none}
-gpgpu_gmem_skip_L1D                    0 # global memory access skip L1D cache (implements -Xptxas -dlcm=cg, default=no skip)
-gpgpu_perfect_mem                      0 # enable perfect memory mode (no cache miss)
-n_regfile_gating_group                    4 # group of lanes that should be read/written together)
-gpgpu_clock_gated_reg_file                    0 # enable clock gated reg file for power calculations
-gpgpu_clock_gated_lanes                    0 # enable clock gated lanes for power calculations
-gpgpu_shader_registers                65536 # Number of registers per shader core. Limits number of concurrent CTAs. (default 8192)
-gpgpu_registers_per_block                65536 # Maximum number of registers per CTA. (default 8192)
-gpgpu_ignore_resources_limitation                    0 # gpgpu_ignore_resources_limitation (default 0)
-gpgpu_shader_cta                      32 # Maximum number of concurrent CTAs in shader (default 32)
-gpgpu_num_cta_barriers                   16 # Maximum number of named barriers per CTA (default 16)
-gpgpu_n_clusters                      40 # number of processing clusters
-gpgpu_n_cores_per_cluster                    2 # number of simd cores per cluster
-gpgpu_n_cluster_ejection_buffer_size                   32 # number of packets in ejection buffer
-gpgpu_n_ldst_response_buffer_size                    2 # number of response packets in ld/st unit ejection buffer
-gpgpu_shmem_per_block                65536 # Size of shared memory per thread block or CTA (default 48kB)
-gpgpu_shmem_size                   98304 # Size of shared memory per shader core (default 16kB)
-gpgpu_shmem_option       0,8,16,32,64,96 # Option list of shared memory sizes
-gpgpu_unified_l1d_size                  128 # Size of unified data cache(L1D + shared memory) in KB
-gpgpu_adaptive_cache_config                    1 # adaptive_cache_config
-gpgpu_shmem_sizeDefault                98304 # Size of shared memory per shader core (default 16kB)
-gpgpu_shmem_size_PrefL1                16384 # Size of shared memory per shader core (default 16kB)
-gpgpu_shmem_size_PrefShared                16384 # Size of shared memory per shader core (default 16kB)
-gpgpu_shmem_num_banks                   32 # Number of banks in the shared memory in each shader core (default 16)
-gpgpu_shmem_limited_broadcast                    0 # Limit shared memory to do one broadcast per cycle (default on)
-gpgpu_shmem_warp_parts                    1 # Number of portions a warp is divided into for shared memory bank conflict check 
-gpgpu_mem_unit_ports                    1 # The number of memory transactions allowed per core cycle
-gpgpu_shmem_warp_parts                    1 # Number of portions a warp is divided into for shared memory bank conflict check 
-gpgpu_warpdistro_shader                   -1 # Specify which shader core to collect the warp size distribution from
-gpgpu_warp_issue_shader                    0 # Specify which shader core to collect the warp issue distribution from
-gpgpu_local_mem_map                    1 # Mapping from local memory space address to simulated GPU physical address space (default = enabled)
-gpgpu_num_reg_banks                    8 # Number of register banks (default = 8)
-gpgpu_reg_bank_use_warp_id                    0 # Use warp ID in mapping registers to banks (default = off)
-gpgpu_sub_core_model                    1 # Sub Core Volta/Pascal model (default = off)
-gpgpu_enable_specialized_operand_collector                    0 # enable_specialized_operand_collector
-gpgpu_operand_collector_num_units_sp                    4 # number of collector units (default = 4)
-gpgpu_operand_collector_num_units_dp                    0 # number of collector units (default = 0)
-gpgpu_operand_collector_num_units_sfu                    4 # number of collector units (default = 4)
-gpgpu_operand_collector_num_units_int                    0 # number of collector units (default = 0)
-gpgpu_operand_collector_num_units_tensor_core                    4 # number of collector units (default = 4)
-gpgpu_operand_collector_num_units_mem                    2 # number of collector units (default = 2)
-gpgpu_operand_collector_num_units_gen                    8 # number of collector units (default = 0)
-gpgpu_operand_collector_num_in_ports_sp                    1 # number of collector unit in ports (default = 1)
-gpgpu_operand_collector_num_in_ports_dp                    0 # number of collector unit in ports (default = 0)
-gpgpu_operand_collector_num_in_ports_sfu                    1 # number of collector unit in ports (default = 1)
-gpgpu_operand_collector_num_in_ports_int                    0 # number of collector unit in ports (default = 0)
-gpgpu_operand_collector_num_in_ports_tensor_core                    1 # number of collector unit in ports (default = 1)
-gpgpu_operand_collector_num_in_ports_mem                    1 # number of collector unit in ports (default = 1)
-gpgpu_operand_collector_num_in_ports_gen                    8 # number of collector unit in ports (default = 0)
-gpgpu_operand_collector_num_out_ports_sp                    1 # number of collector unit in ports (default = 1)
-gpgpu_operand_collector_num_out_ports_dp                    0 # number of collector unit in ports (default = 0)
-gpgpu_operand_collector_num_out_ports_sfu                    1 # number of collector unit in ports (default = 1)
-gpgpu_operand_collector_num_out_ports_int                    0 # number of collector unit in ports (default = 0)
-gpgpu_operand_collector_num_out_ports_tensor_core                    1 # number of collector unit in ports (default = 1)
-gpgpu_operand_collector_num_out_ports_mem                    1 # number of collector unit in ports (default = 1)
-gpgpu_operand_collector_num_out_ports_gen                    8 # number of collector unit in ports (default = 0)
-gpgpu_coalesce_arch                   60 # Coalescing arch (GT200 = 13, Fermi = 20)
-gpgpu_num_sched_per_core                    4 # Number of warp schedulers per core
-gpgpu_max_insn_issue_per_warp                    1 # Max number of instructions that can be issued per warp in one cycle by scheduler (either 1 or 2)
-gpgpu_dual_issue_diff_exec_units                    1 # should dual issue use two different execution unit resources (Default = 1)
-gpgpu_simt_core_sim_order                    1 # Select the simulation order of cores in a cluster (0=Fix, 1=Round-Robin)
-gpgpu_pipeline_widths 4,4,4,4,4,4,4,4,4,4,8,4,4 # Pipeline widths ID_OC_SP,ID_OC_DP,ID_OC_INT,ID_OC_SFU,ID_OC_MEM,OC_EX_SP,OC_EX_DP,OC_EX_INT,OC_EX_SFU,OC_EX_MEM,EX_WB,ID_OC_TENSOR_CORE,OC_EX_TENSOR_CORE
-gpgpu_tensor_core_avail                    1 # Tensor Core Available (default=0)
-gpgpu_num_sp_units                     4 # Number of SP units (default=1)
-gpgpu_num_dp_units                     4 # Number of DP units (default=0)
-gpgpu_num_int_units                    4 # Number of INT units (default=0)
-gpgpu_num_sfu_units                    4 # Number of SF units (default=1)
-gpgpu_num_tensor_core_units                    4 # Number of tensor_core units (default=1)
-gpgpu_num_mem_units                    1 # Number if ldst units (default=1) WARNING: not hooked up to anything
-gpgpu_scheduler                      lrr # Scheduler configuration: < lrr | gto | two_level_active > If two_level_active:<num_active_warps>:<inner_prioritization>:<outer_prioritization>For complete list of prioritization values see shader.h enum scheduler_prioritization_typeDefault: gto
-gpgpu_concurrent_kernel_sm                    0 # Support concurrent kernels on a SM (default = disabled)
-gpgpu_perfect_inst_const_cache                    1 # perfect inst and const cache mode, so all inst and const hits in the cache(default = disabled)
-gpgpu_inst_fetch_throughput                    4 # the number of fetched intruction per warp each cycle
-gpgpu_reg_file_port_throughput                    2 # the number ports of the register file
-specialized_unit_1         0,4,4,4,4,BRA # specialized unit config {<enabled>,<num_units>:<latency>:<initiation>,<ID_OC_SPEC>:<OC_EX_SPEC>,<NAME>}
-specialized_unit_2         0,4,4,4,4,BRA # specialized unit config {<enabled>,<num_units>:<latency>:<initiation>,<ID_OC_SPEC>:<OC_EX_SPEC>,<NAME>}
-specialized_unit_3         0,4,4,4,4,BRA # specialized unit config {<enabled>,<num_units>:<latency>:<initiation>,<ID_OC_SPEC>:<OC_EX_SPEC>,<NAME>}
-specialized_unit_4         0,4,4,4,4,BRA # specialized unit config {<enabled>,<num_units>:<latency>:<initiation>,<ID_OC_SPEC>:<OC_EX_SPEC>,<NAME>}
-specialized_unit_5         0,4,4,4,4,BRA # specialized unit config {<enabled>,<num_units>:<latency>:<initiation>,<ID_OC_SPEC>:<OC_EX_SPEC>,<NAME>}
-specialized_unit_6         0,4,4,4,4,BRA # specialized unit config {<enabled>,<num_units>:<latency>:<initiation>,<ID_OC_SPEC>:<OC_EX_SPEC>,<NAME>}
-specialized_unit_7         0,4,4,4,4,BRA # specialized unit config {<enabled>,<num_units>:<latency>:<initiation>,<ID_OC_SPEC>:<OC_EX_SPEC>,<NAME>}
-specialized_unit_8         0,4,4,4,4,BRA # specialized unit config {<enabled>,<num_units>:<latency>:<initiation>,<ID_OC_SPEC>:<OC_EX_SPEC>,<NAME>}
-gpgpu_perf_sim_memcpy                    1 # Fill the L2 cache on memcpy
-gpgpu_simple_dram_model                    0 # simple_dram_model with fixed latency and BW
-gpgpu_dram_scheduler                    1 # 0 = fifo, 1 = FR-FCFS (defaul)
-gpgpu_dram_partition_queues          64:64:64:64 # i2$:$2d:d2$:$2i
-l2_ideal                               0 # Use a ideal L2 cache that always hit
-gpgpu_cache:dl2     S:32:128:24,L:B:m:L:P,A:192:4,32:0,32 # unified banked L2 data cache config  {<nsets>:<bsize>:<assoc>,<rep>:<wr>:<alloc>:<wr_alloc>,<mshr>:<N>:<merge>,<mq>}
-gpgpu_cache:dl2_texture_only                    0 # L2 cache used for texture only
-gpgpu_n_mem                           24 # number of memory modules (e.g. memory controllers) in gpu
-gpgpu_n_sub_partition_per_mchannel                    2 # number of memory subpartition in each memory module
-gpgpu_n_mem_per_ctrlr                    1 # number of memory chips per memory controller
-gpgpu_memlatency_stat                   14 # track and display latency statistics 0x2 enables MC, 0x4 enables queue logs
-gpgpu_frfcfs_dram_sched_queue_size                   64 # 0 = unlimited (default); # entries per chip
-gpgpu_dram_return_queue_size                  192 # 0 = unlimited (default); # entries per chip
-gpgpu_dram_buswidth                   16 # default = 4 bytes (8 bytes per cycle at DDR)
-gpgpu_dram_burst_length                    2 # Burst length of each DRAM request (default = 4 data bus cycle)
-dram_data_command_freq_ratio                    2 # Frequency ratio between DRAM data bus and command bus (default = 2 times, i.e. DDR)
-gpgpu_dram_timing_opt nbk=16:CCD=1:RRD=3:RCD=12:RAS=28:RP=12:RC=40: CL=12:WL=2:CDLR=3:WR=10:nbkgrp=4:CCDL=2:RTPL=3 # DRAM timing parameters = {nbk:tCCD:tRRD:tRCD:tRAS:tRP:tRC:CL:WL:tCDLR:tWR:nbkgrp:tCCDL:tRTPL}
-gpgpu_l2_rop_latency                  160 # ROP queue latency (default 85)
-dram_latency                         100 # DRAM latency (default 30)
-dram_dual_bus_interface                  257 # dual_bus_interface (default = 0) 
-dram_bnk_indexing_policy                    1 # dram_bnk_indexing_policy (0 = normal indexing, 1 = Xoring with the higher bits) (Default = 0)
-dram_bnkgrp_indexing_policy                    1 # dram_bnkgrp_indexing_policy (0 = take higher bits, 1 = take lower bits) (Default = 0)
-dram_seperate_write_queue_enable                    1 # Seperate_Write_Queue_Enable
-dram_write_queue_size           128:108:32 # Write_Queue_Size
-dram_elimnate_rw_turnaround                    0 # elimnate_rw_turnaround i.e set tWTR and tRTW = 0
-icnt_flit_size                        40 # icnt_flit_size
-SST_mode                               0 # SST mode
-gpgpu_mem_addr_mapping dramid@8;00000000.00000000.00000000.00000000.0000RRRR.RRRRRRRR.RBBBCCCB.CCCSSSSS # mapping memory address to dram model {dramid@<start bit>;<memory address map>}
-gpgpu_mem_addr_test                    0 # run sweep test to check address mapping for aliased address
-gpgpu_mem_address_mask                    1 # 0 = old addressing mask, 1 = new addressing mask, 2 = new add. mask + flipped bank sel and chip sel bits
-gpgpu_memory_partition_indexing                    2 # 0 = no indexing, 1 = bitwise xoring, 2 = IPoly, 3 = custom indexing
-accelwattch_xml_file accelwattch_sass_sim.xml # AccelWattch XML file
-power_simulation_enabled                    0 # Turn on power simulator (1=On, 0=Off)
-power_per_cycle_dump                    0 # Dump detailed power output each cycle
-hw_perf_file_name            hw_perf.csv # Hardware Performance Statistics file
-hw_perf_bench_name                       # Kernel Name in Hardware Performance Statistics file
-power_simulation_mode                    0 # Switch performance counter input for power simulation (0=Sim, 1=HW, 2=HW-Sim Hybrid)
-dvfs_enabled                           0 # Turn on DVFS for power model
-aggregate_power_stats                    0 # Accumulate power across all kernels
-accelwattch_hybrid_perfsim_L1_RH                    0 # Get L1 Read Hits for Accelwattch-Hybrid from Accel-Sim
-accelwattch_hybrid_perfsim_L1_RM                    0 # Get L1 Read Misses for Accelwattch-Hybrid from Accel-Sim
-accelwattch_hybrid_perfsim_L1_WH                    0 # Get L1 Write Hits for Accelwattch-Hybrid from Accel-Sim
-accelwattch_hybrid_perfsim_L1_WM                    0 # Get L1 Write Misses for Accelwattch-Hybrid from Accel-Sim
-accelwattch_hybrid_perfsim_L2_RH                    0 # Get L2 Read Hits for Accelwattch-Hybrid from Accel-Sim
-accelwattch_hybrid_perfsim_L2_RM                    0 # Get L2 Read Misses for Accelwattch-Hybrid from Accel-Sim
-accelwattch_hybrid_perfsim_L2_WH                    0 # Get L2 Write Hits for Accelwattch-Hybrid from Accel-Sim
-accelwattch_hybrid_perfsim_L2_WM                    0 # Get L2 Write Misses for Accelwattch-Hybrid from Accel-Sim
-accelwattch_hybrid_perfsim_CC_ACC                    0 # Get Constant Cache Acesses for Accelwattch-Hybrid from Accel-Sim
-accelwattch_hybrid_perfsim_SHARED_ACC                    0 # Get Shared Memory Acesses for Accelwattch-Hybrid from Accel-Sim
-accelwattch_hybrid_perfsim_DRAM_RD                    0 # Get DRAM Reads for Accelwattch-Hybrid from Accel-Sim
-accelwattch_hybrid_perfsim_DRAM_WR                    0 # Get DRAM Writes for Accelwattch-Hybrid from Accel-Sim
-accelwattch_hybrid_perfsim_NOC                    0 # Get Interconnect Acesses for Accelwattch-Hybrid from Accel-Sim
-accelwattch_hybrid_perfsim_PIPE_DUTY                    0 # Get Pipeline Duty Cycle Acesses for Accelwattch-Hybrid from Accel-Sim
-accelwattch_hybrid_perfsim_NUM_SM_IDLE                    0 # Get Number of Idle SMs for Accelwattch-Hybrid from Accel-Sim
-accelwattch_hybrid_perfsim_CYCLES                    0 # Get Executed Cycles for Accelwattch-Hybrid from Accel-Sim
-accelwattch_hybrid_perfsim_VOLTAGE                    0 # Get Chip Voltage for Accelwattch-Hybrid from Accel-Sim
-power_trace_enabled                    0 # produce a file for the power trace (1=On, 0=Off)
-power_trace_zlevel                     6 # Compression level of the power trace output log (0=no comp, 9=highest)
-steady_power_levels_enabled                    0 # produce a file for the steady power levels (1=On, 0=Off)
-steady_state_definition                  8:4 # allowed deviation:number of samples
-gpgpu_max_cycle                        0 # terminates gpu simulation early (0 = no limit)
-gpgpu_max_insn                         0 # terminates gpu simulation early (0 = no limit)
-gpgpu_max_cta                          0 # terminates gpu simulation early (0 = no limit)
-gpgpu_max_completed_cta                    0 # terminates gpu simulation early (0 = no limit)
-gpgpu_runtime_stat                   500 # display runtime statistics such as dram utilization {<freq>:<flag>}
-liveness_message_freq                    1 # Minimum number of seconds between simulation liveness messages (0 = always print)
-gpgpu_compute_capability_major                    7 # Major compute capability version number
-gpgpu_compute_capability_minor                    0 # Minor compute capability version number
-gpgpu_flush_l1_cache                    1 # Flush L1 cache at the end of each kernel call
-gpgpu_flush_l2_cache                    0 # Flush L2 cache at the end of each kernel call
-gpgpu_deadlock_detect                    1 # Stop the simulation at deadlock (1=on (default), 0=off)
-gpgpu_ptx_instruction_classification                    0 # if enabled will classify ptx instruction types per kernel (Max 255 kernels now)
-gpgpu_ptx_sim_mode                     0 # Select between Performance (default) or Functional simulation (1)
-gpgpu_clock_domains 1200.0:1200.0:1200.0:850.0 # Clock Domain Frequencies in MhZ {<Core Clock>:<ICNT Clock>:<L2 Clock>:<DRAM Clock>}
-gpgpu_max_concurrent_kernel                  128 # maximum kernels that can run concurrently on GPU, set this value according to max resident grids for your compute capability
-gpgpu_cflog_interval                    0 # Interval between each snapshot in control flow logger
-visualizer_enabled                     0 # Turn on visualizer output (1=On, 0=Off)
-visualizer_outputfile                 NULL # Specifies the output log file for visualizer
-visualizer_zlevel                      6 # Compression level of the visualizer output log (0=no comp, 9=highest)
-gpgpu_stack_size_limit                 1024 # GPU thread stack size
-gpgpu_heap_size_limit              8388608 # GPU malloc heap size 
-gpgpu_runtime_sync_depth_limit                    2 # GPU device runtime synchronize depth
-gpgpu_runtime_pending_launch_count_limit                 2048 # GPU device runtime pending launch count
-trace_enabled                          0 # Turn on traces
-trace_components                    none # comma seperated list of traces to enable. Complete list found in trace_streams.tup. Default none
-trace_sampling_core                    0 # The core which is printed using CORE_DPRINTF. Default 0
-trace_sampling_memory_partition                   -1 # The memory partition which is printed using MEMPART_DPRINTF. Default -1 (i.e. all)
-enable_ptx_file_line_stats                    1 # Turn on PTX source line statistic profiling. (1 = On)
-ptx_line_stats_filename gpgpu_inst_stats.txt # Output file for PTX source line statistics.
-gpgpu_kernel_launch_latency                    0 # Kernel launch latency in cycles. Default: 0
-gpgpu_cdp_enabled                      0 # Turn on CDP
-gpgpu_TB_launch_latency                    0 # thread block launch latency in cycles. Default: 0
DRAM Timing Options:
nbk                                    16 # number of banks
CCD                                     1 # column to column delay
RRD                              928232c54bd431e76aa8132d2e513e97  /workspace/gpgpu-sim_simulations/benchmarks/src/cuda/bin/release/GEMM
Extracting PTX file and ptxas options    1: GEMM.1.sm_30.ptx -arch=sm_30
       3 # minimal delay between activation of rows in different banks
RCD                                    12 # row to column delay
RAS                                    28 # time needed to activate row
RP                                     12 # time needed to precharge (deactivate) row
RC                                     40 # row cycle time
CDLR                                    3 # switching from write to read (changes tWTR)
WR                                     10 # last data-in to row precharge
CL                                     12 # CAS latency
WL                                      2 # Write latency
nbkgrp                                  4 # number of bank groups
CCDL                                    2 # column to column delay between accesses to different bank groups
RTPL                                    3 # read to precharge delay between accesses to different bank groups
Total number of memory sub partition = 48
addr_dec_mask[CHIP]  = 0000000000000000 	high:64 low:0
addr_dec_mask[BK]    = 0000000000007100 	high:15 low:8
addr_dec_mask[ROW]   = 000000000fff8000 	high:28 low:15
addr_dec_mask[COL]   = 0000000000000eff 	high:12 low:0
addr_dec_mask[BURST] = 000000000000001f 	high:5 low:0
sub_partition_id_mask = 0000000000000100
GPGPU-Sim uArch: clock freqs: 1200000000.000000:1200000000.000000:1200000000.000000:850000000.000000
GPGPU-Sim uArch: clock periods: 0.00000000083333333333:0.00000000083333333333:0.00000000083333333333:0.00000000117647058824
*** Initializing Memory Statistics ***
GPGPU-Sim uArch: performance model initialization complete.
GPGPU-Sim PTX: __cudaRegisterFatBinary, fat_cubin_handle = 1, filename=default
self exe links to: /workspace/gpgpu-sim_simulations/benchmarks/src/cuda/bin/release/GEMM
Running md5sum using "md5sum /workspace/gpgpu-sim_simulations/benchmarks/src/cuda/bin/release/GEMM "
self exe links to: /workspace/gpgpu-sim_simulations/benchmarks/src/cuda/bin/release/GEMM
Extracting specific PTX file named GEMM.1.sm_30.ptx 
GPGPU-Sim PTX: __cudaRegisterFunction _Z11gemm_kernelPfS_S_ : hostFun 0x0x5f266fc01988, fat_cubin_handle = 1
GPGPU-Sim PTX: Parsing GEMM.1.sm_30.ptx
GPGPU-Sim PTX: instruction assembly for function '_Z11gemm_kernelPfS_S_'...   done.
GPGPU-Sim PTX: finished parsing EMBEDDED .ptx file GEMM.1.sm_30.ptx
GPGPU-Sim PTX: loading globals with explicit initializers... 
GPGPU-Sim PTX: finished loading globals (0 bytes total).
GPGPU-Sim PTX: loading constants with explicit initializers...  done.
GPGPU-Sim PTX: Loading PTXInfo from GEMM.1.sm_30.ptx
GPGPU-Sim PTX: Kernel '_Z11gemm_kernelPfS_S_' : regs=21, lmem=0, smem=0, cmem=344
setting device 0 with name GPGPU-Sim_vGPGPU-Sim Simulator Version 4.2.0 
GPGPU-Sim PTX: Setting up arguments for 8 bytes starting at 0x7fffa149a258..
GPGPU-Sim PTX: Setting up arguments for 8 bytes starting at 0x7fffa149a250..
GPGPU-Sim PTX: Setting up arguments for 8 bytes starting at 0x7fffa149a248..

GPGPU-Sim PTX: cudaLaunch for 0x0x5f266fc01988 (mode=performance simulation) on stream 0
GPGPU-Sim PTX: finding reconvergence points for '_Z11gemm_kernelPfS_S_'...
GPGPU-Sim PTX: Finding dominators for '_Z11gemm_kernelPfS_S_'...
GPGPU-Sim PTX: Finding immediate dominators for '_Z11gemm_kernelPfS_S_'...
GPGPU-Sim PTX: Finding postdominators for '_Z11gemm_kernelPfS_S_'...
GPGPU-Sim PTX: Finding immediate postdominators for '_Z11gemm_kernelPfS_S_'...
GPGPU-Sim PTX: pre-decoding instructions for '_Z11gemm_kernelPfS_S_'...
GPGPU-Sim PTX: reconvergence points for _Z11gemm_kernelPfS_S_...
GPGPU-Sim PTX:  1 (potential) branch divergence @  PC=0x070 (GEMM.1.sm_30.ptx:41) @%p3 bra BB0_3;
GPGPU-Sim PTX:    immediate post dominator      @  PC=0x270 (GEMM.1.sm_30.ptx:110) ret;
GPGPU-Sim PTX:  2 (potential) branch divergence @  PC=0x268 (GEMM.1.sm_30.ptx:107) @%p4 bra BB0_2;
GPGPU-Sim PTX:    immediate post dominator      @  PC=0x270 (GEMM.1.sm_30.ptx:110) ret;
GPGPU-Sim PTX: ... end of reconvergence points for _Z11gemm_kernelPfS_S_
GPGPU-Sim PTX: ... done pre-decoding instructions for '_Z11gemm_kernelPfS_S_'.
GPGPU-Sim PTX: pushing kernel '_Z11gemm_kernelPfS_S_' to stream 0, gridDim= (16,64,1) blockDim = (32,8,1) 
GPGPU-Sim uArch: Shader 0 bind to kernel 1 '_Z11gemm_kernelPfS_S_'
GPGPU-Sim uArch: CTA/core = 8, limited by: threads
GPGPU-Sim: Reconfigure L1 cache to 128KB
GPGPU-Sim uArch: Shader 2 bind to kernel 1 '_Z11gemm_kernelPfS_S_'
GPGPU-Sim uArch: Shader 4 bind to kernel 1 '_Z11gemm_kernelPfS_S_'
GPGPU-Sim uArch: Shader 6 bind to kernel 1 '_Z11gemm_kernelPfS_S_'
GPGPU-Sim uArch: Shader 8 bind to kernel 1 '_Z11gemm_kernelPfS_S_'
GPGPU-Sim uArch: Shader 10 bind to kernel 1 '_Z11gemm_kernelPfS_S_'
GPGPU-Sim uArch: Shader 12 bind to kernel 1 '_Z11gemm_kernelPfS_S_'
GPGPU-Sim uArch: Shader 14 bind to kernel 1 '_Z11gemm_kernelPfS_S_'
GPGPU-Sim uArch: Shader 16 bind to kernel 1 '_Z11gemm_kernelPfS_S_'
GPGPU-Sim uArch: Shader 18 bind to kernel 1 '_Z11gemm_kernelPfS_S_'
GPGPU-Sim uArch: Shader 20 bind to kernel 1 '_Z11gemm_kernelPfS_S_'
GPGPU-Sim uArch: Shader 22 bind to kernel 1 '_Z11gemm_kernelPfS_S_'
GPGPU-Sim uArch: Shader 24 bind to kernel 1 '_Z11gemm_kernelPfS_S_'
GPGPU-Sim uArch: Shader 26 bind to kernel 1 '_Z11gemm_kernelPfS_S_'
GPGPU-Sim uArch: Shader 28 bind to kernel 1 '_Z11gemm_kernelPfS_S_'
GPGPU-Sim uArch: Shader 30 bind to kernel 1 '_Z11gemm_kernelPfS_S_'
GPGPU-Sim uArch: Shader 32 bind to kernel 1 '_Z11gemm_kernelPfS_S_'
GPGPU-Sim uArch: Shader 34 bind to kernel 1 '_Z11gemm_kernelPfS_S_'
GPGPU-Sim uArch: Shader 36 bind to kernel 1 '_Z11gemm_kernelPfS_S_'
GPGPU-Sim uArch: Shader 38 bind to kernel 1 '_Z11gemm_kernelPfS_S_'
GPGPU-Sim uArch: Shader 40 bind to kernel 1 '_Z11gemm_kernelPfS_S_'
GPGPU-Sim uArch: Shader 42 bind to kernel 1 '_Z11gemm_kernelPfS_S_'
GPGPU-Sim uArch: Shader 44 bind to kernel 1 '_Z11gemm_kernelPfS_S_'
GPGPU-Sim uArch: Shader 46 bind to kernel 1 '_Z11gemm_kernelPfS_S_'
GPGPU-Sim uArch: Shader 48 bind to kernel 1 '_Z11gemm_kernelPfS_S_'
GPGPU-Sim uArch: Shader 50 bind to kernel 1 '_Z11gemm_kernelPfS_S_'
GPGPU-Sim uArch: Shader 52 bind to kernel 1 '_Z11gemm_kernelPfS_S_'
GPGPU-Sim uArch: Shader 54 bind to kernel 1 '_Z11gemm_kernelPfS_S_'
GPGPU-Sim uArch: Shader 56 bind to kernel 1 '_Z11gemm_kernelPfS_S_'
GPGPU-Sim uArch: Shader 58 bind to kernel 1 '_Z11gemm_kernelPfS_S_'
GPGPU-Sim uArch: Shader 60 bind to kernel 1 '_Z11gemm_kernelPfS_S_'
GPGPU-Sim uArch: Shader 62 bind to kernel 1 '_Z11gemm_kernelPfS_S_'
GPGPU-Sim uArch: Shader 64 bind to kernel 1 '_Z11gemm_kernelPfS_S_'
GPGPU-Sim uArch: Shader 66 bind to kernel 1 '_Z11gemm_kernelPfS_S_'
GPGPU-Sim uArch: Shader 68 bind to kernel 1 '_Z11gemm_kernelPfS_S_'
GPGPU-Sim uArch: Shader 70 bind to kernel 1 '_Z11gemm_kernelPfS_S_'
GPGPU-Sim uArch: Shader 72 bind to kernel 1 '_Z11gemm_kernelPfS_S_'
GPGPU-Sim uArch: Shader 74 bind to kernel 1 '_Z11gemm_kernelPfS_S_'
GPGPU-Sim uArch: Shader 76 bind to kernel 1 '_Z11gemm_kernelPfS_S_'
GPGPU-Sim uArch: Shader 78 bind to kernel 1 '_Z11gemm_kernelPfS_S_'
GPGPU-Sim uArch: Shader 1 bind to kernel 1 '_Z11gemm_kernelPfS_S_'
GPGPU-Sim uArch: Shader 3 bind to kernel 1 '_Z11gemm_kernelPfS_S_'
GPGPU-Sim uArch: Shader 5 bind to kernel 1 '_Z11gemm_kernelPfS_S_'
GPGPU-Sim uArch: Shader 7 bind to kernel 1 '_Z11gemm_kernelPfS_S_'
GPGPU-Sim uArch: Shader 9 bind to kernel 1 '_Z11gemm_kernelPfS_S_'
GPGPU-Sim uArch: Shader 11 bind to kernel 1 '_Z11gemm_kernelPfS_S_'
GPGPU-Sim uArch: Shader 13 bind to kernel 1 '_Z11gemm_kernelPfS_S_'
GPGPU-Sim uArch: Shader 15 bind to kernel 1 '_Z11gemm_kernelPfS_S_'
GPGPU-Sim uArch: Shader 17 bind to kernel 1 '_Z11gemm_kernelPfS_S_'
GPGPU-Sim uArch: Shader 19 bind to kernel 1 '_Z11gemm_kernelPfS_S_'
GPGPU-Sim uArch: Shader 21 bind to kernel 1 '_Z11gemm_kernelPfS_S_'
GPGPU-Sim uArch: Shader 23 bind to kernel 1 '_Z11gemm_kernelPfS_S_'
GPGPU-Sim uArch: Shader 25 bind to kernel 1 '_Z11gemm_kernelPfS_S_'
GPGPU-Sim uArch: Shader 27 bind to kernel 1 '_Z11gemm_kernelPfS_S_'
GPGPU-Sim uArch: Shader 29 bind to kernel 1 '_Z11gemm_kernelPfS_S_'
GPGPU-Sim uArch: Shader 31 bind to kernel 1 '_Z11gemm_kernelPfS_S_'
GPGPU-Sim uArch: Shader 33 bind to kernel 1 '_Z11gemm_kernelPfS_S_'
GPGPU-Sim uArch: Shader 35 bind to kernel 1 '_Z11gemm_kernelPfS_S_'
GPGPU-Sim uArch: Shader 37 bind to kernel 1 '_Z11gemm_kernelPfS_S_'
GPGPU-Sim uArch: Shader 39 bind to kernel 1 '_Z11gemm_kernelPfS_S_'
GPGPU-Sim uArch: Shader 41 bind to kernel 1 '_Z11gemm_kernelPfS_S_'
GPGPU-Sim uArch: Shader 43 bind to kernel 1 '_Z11gemm_kernelPfS_S_'
GPGPU-Sim uArch: Shader 45 bind to kernel 1 '_Z11gemm_kernelPfS_S_'
GPGPU-Sim uArch: Shader 47 bind to kernel 1 '_Z11gemm_kernelPfS_S_'
GPGPU-Sim uArch: Shader 49 bind to kernel 1 '_Z11gemm_kernelPfS_S_'
GPGPU-Sim uArch: Shader 51 bind to kernel 1 '_Z11gemm_kernelPfS_S_'
GPGPU-Sim uArch: Shader 53 bind to kernel 1 '_Z11gemm_kernelPfS_S_'
GPGPU-Sim uArch: Shader 55 bind to kernel 1 '_Z11gemm_kernelPfS_S_'
GPGPU-Sim uArch: Shader 57 bind to kernel 1 '_Z11gemm_kernelPfS_S_'
GPGPU-Sim uArch: Shader 59 bind to kernel 1 '_Z11gemm_kernelPfS_S_'
GPGPU-Sim uArch: Shader 61 bind to kernel 1 '_Z11gemm_kernelPfS_S_'
GPGPU-Sim uArch: Shader 63 bind to kernel 1 '_Z11gemm_kernelPfS_S_'
GPGPU-Sim uArch: Shader 65 bind to kernel 1 '_Z11gemm_kernelPfS_S_'
GPGPU-Sim uArch: Shader 67 bind to kernel 1 '_Z11gemm_kernelPfS_S_'
GPGPU-Sim uArch: Shader 69 bind to kernel 1 '_Z11gemm_kernelPfS_S_'
GPGPU-Sim uArch: Shader 71 bind to kernel 1 '_Z11gemm_kernelPfS_S_'
GPGPU-Sim uArch: Shader 73 bind to kernel 1 '_Z11gemm_kernelPfS_S_'
GPGPU-Sim uArch: Shader 75 bind to kernel 1 '_Z11gemm_kernelPfS_S_'
GPGPU-Sim uArch: Shader 77 bind to kernel 1 '_Z11gemm_kernelPfS_S_'
GPGPU-Sim uArch: Shader 79 bind to kernel 1 '_Z11gemm_kernelPfS_S_'
Destroy streams for kernel 1: size 0
kernel_name = _Z11gemm_kernelPfS_S_ 
kernel_launch_uid = 1 
kernel_stream_id = 0
gpu_sim_cycle = 1077407
gpu_sim_insn = 812908544
gpu_ipc =     754.5046
gpu_tot_sim_cycle = 1077407
gpu_tot_sim_insn = 812908544
gpu_tot_ipc =     754.5046
gpu_tot_issued_cta = 1024
gpu_occupancy = 98.2450% 
gpu_tot_occupancy = 98.2450% 
max_total_param_size = 0
gpu_stall_dramfull = 1101154
gpu_stall_icnt2sh    = 1418134
partiton_level_parallism =      16.8288
partiton_level_parallism_total  =      16.8288
partiton_level_parallism_util =      17.0900
partiton_level_parallism_util_total  =      17.0900
L2_BW  =     646.2241 GB/Sec
L2_BW_total  =     646.2241 GB/Sec
gpu_total_sim_rate=112591

========= Core cache stats =========
L1I_cache:
	L1I_total_cache_accesses = 0
	L1I_total_cache_misses = 0
	L1I_total_cache_pending_hits = 0
	L1I_total_cache_reservation_fails = 0
L1D_cache:
	L1D_cache_core[0]: Access = 1181696, Miss = 45696, Miss_rate = 0.039, Pending_hits = 237517, Reservation_fails = 4030271
	L1D_cache_core[1]: Access = 1181696, Miss = 47616, Miss_rate = 0.040, Pending_hits = 257475, Reservation_fails = 2707283
	L1D_cache_core[2]: Access = 1181696, Miss = 49152, Miss_rate = 0.042, Pending_hits = 254691, Reservation_fails = 2741668
	L1D_cache_core[3]: Access = 1181696, Miss = 46784, Miss_rate = 0.040, Pending_hits = 229533, Reservation_fails = 3891592
	L1D_cache_core[4]: Access = 1181696, Miss = 46464, Miss_rate = 0.039, Pending_hits = 228760, Reservation_fails = 4006640
	L1D_cache_core[5]: Access = 1181696, Miss = 45780, Miss_rate = 0.039, Pending_hits = 237298, Reservation_fails = 4096404
	L1D_cache_core[6]: Access = 1181696, Miss = 46208, Miss_rate = 0.039, Pending_hits = 215233, Reservation_fails = 4112162
	L1D_cache_core[7]: Access = 1181696, Miss = 45056, Miss_rate = 0.038, Pending_hits = 218860, Reservation_fails = 4021131
	L1D_cache_core[8]: Access = 886272, Miss = 29952, Miss_rate = 0.034, Pending_hits = 142382, Reservation_fails = 2666859
	L1D_cache_core[9]: Access = 590848, Miss = 12800, Miss_rate = 0.022, Pending_hits = 28672, Reservation_fails = 2621136
	L1D_cache_core[10]: Access = 590848, Miss = 12800, Miss_rate = 0.022, Pending_hits = 28672, Reservation_fails = 2618781
	L1D_cache_core[11]: Access = 590848, Miss = 12800, Miss_rate = 0.022, Pending_hits = 28672, Reservation_fails = 2612947
	L1D_cache_core[12]: Access = 590848, Miss = 12800, Miss_rate = 0.022, Pending_hits = 28672, Reservation_fails = 2596184
	L1D_cache_core[13]: Access = 886272, Miss = 27648, Miss_rate = 0.031, Pending_hits = 104000, Reservation_fails = 4118322
	L1D_cache_core[14]: Access = 590848, Miss = 12800, Miss_rate = 0.022, Pending_hits = 28665, Reservation_fails = 2611731
	L1D_cache_core[15]: Access = 590848, Miss = 12800, Miss_rate = 0.022, Pending_hits = 28672, Reservation_fails = 2598407
	L1D_cache_core[16]: Access = 1181696, Miss = 47104, Miss_rate = 0.040, Pending_hits = 257771, Reservation_fails = 2675290
	L1D_cache_core[17]: Access = 1181696, Miss = 47104, Miss_rate = 0.040, Pending_hits = 257455, Reservation_fails = 2689042
	L1D_cache_core[18]: Access = 1181696, Miss = 47616, Miss_rate = 0.040, Pending_hits = 256590, Reservation_fails = 2671631
	L1D_cache_core[19]: Access = 1181696, Miss = 47616, Miss_rate = 0.040, Pending_hits = 257031, Reservation_fails = 2678115
	L1D_cache_core[20]: Access = 1181696, Miss = 47104, Miss_rate = 0.040, Pending_hits = 257397, Reservation_fails = 2693322
	L1D_cache_core[21]: Access = 1181696, Miss = 47104, Miss_rate = 0.040, Pending_hits = 257834, Reservation_fails = 2680924
	L1D_cache_core[22]: Access = 1181696, Miss = 47104, Miss_rate = 0.040, Pending_hits = 257219, Reservation_fails = 2688713
	L1D_cache_core[23]: Access = 1181696, Miss = 47104, Miss_rate = 0.040, Pending_hits = 255306, Reservation_fails = 2671610
	L1D_cache_core[24]: Access = 1181696, Miss = 46712, Miss_rate = 0.040, Pending_hits = 230461, Reservation_fails = 4003421
	L1D_cache_core[25]: Access = 1181696, Miss = 46240, Miss_rate = 0.039, Pending_hits = 236069, Reservation_fails = 3871905
	L1D_cache_core[26]: Access = 1033984, Miss = 39296, Miss_rate = 0.038, Pending_hits = 188422, Reservation_fails = 2690874
	L1D_cache_core[27]: Access = 849344, Miss = 26464, Miss_rate = 0.031, Pending_hits = 110879, Reservation_fails = 3740642
	L1D_cache_core[28]: Access = 1181696, Miss = 45692, Miss_rate = 0.039, Pending_hits = 207540, Reservation_fails = 5353797
	L1D_cache_core[29]: Access = 1181696, Miss = 41720, Miss_rate = 0.035, Pending_hits = 184945, Reservation_fails = 5691630
	L1D_cache_core[30]: Access = 1181696, Miss = 47448, Miss_rate = 0.040, Pending_hits = 227019, Reservation_fails = 4006999
	L1D_cache_core[31]: Access = 1070912, Miss = 40448, Miss_rate = 0.038, Pending_hits = 187393, Reservation_fails = 3913676
	L1D_cache_core[32]: Access = 590848, Miss = 12800, Miss_rate = 0.022, Pending_hits = 28672, Reservation_fails = 2674465
	L1D_cache_core[33]: Access = 590848, Miss = 12800, Miss_rate = 0.022, Pending_hits = 28672, Reservation_fails = 2686381
	L1D_cache_core[34]: Access = 590848, Miss = 12800, Miss_rate = 0.022, Pending_hits = 28672, Reservation_fails = 2658589
	L1D_cache_core[35]: Access = 590848, Miss = 12800, Miss_rate = 0.022, Pending_hits = 28672, Reservation_fails = 2677714
	L1D_cache_core[36]: Access = 590848, Miss = 12800, Miss_rate = 0.022, Pending_hits = 28672, Reservation_fails = 2667455
	L1D_cache_core[37]: Access = 590848, Miss = 12800, Miss_rate = 0.022, Pending_hits = 28672, Reservation_fails = 2672258
	L1D_cache_core[38]: Access = 590848, Miss = 12800, Miss_rate = 0.022, Pending_hits = 28671, Reservation_fails = 2687496
	L1D_cache_core[39]: Access = 590848, Miss = 12800, Miss_rate = 0.022, Pending_hits = 28672, Reservation_fails = 2689186
	L1D_total_cache_accesses = 37814272
	L1D_total_cache_misses = 1321432
	L1D_total_cache_miss_rate = 0.0349
	L1D_total_cache_pending_hits = 6156480
	L1D_total_cache_reservation_fails = 128186653
	L1D_cache_data_port_util = 0.485
	L1D_cache_fill_port_util = 0.021
L1C_cache:
	L1C_total_cache_accesses = 0
	L1C_total_cache_misses = 0
	L1C_total_cache_pending_hits = 0
	L1C_total_cache_reservation_fails = 0
L1T_cache:
	L1T_total_cache_accesses = 0
	L1T_total_cache_misses = 0
	L1T_total_cache_pending_hits = 0
	L1T_total_cache_reservation_fails = 0

Total_core_cache_stats:
	Total_core_cache_stats_breakdown[GLOBAL_ACC_R][HIT] = 13526376
	Total_core_cache_stats_breakdown[GLOBAL_ACC_R][HIT_RESERVED] = 6156480
	Total_core_cache_stats_breakdown[GLOBAL_ACC_R][MISS] = 330358
	Total_core_cache_stats_breakdown[GLOBAL_ACC_R][RESERVATION_FAIL] = 118302535
	Total_core_cache_stats_breakdown[GLOBAL_ACC_R][SECTOR_MISS] = 991074
	Total_core_cache_stats_breakdown[GLOBAL_ACC_R][MSHR_HIT] = 6156480
	Total_core_cache_stats_breakdown[LOCAL_ACC_R][HIT] = 0
	Total_core_cache_stats_breakdown[LOCAL_ACC_R][HIT_RESERVED] = 0
	Total_core_cache_stats_breakdown[LOCAL_ACC_R][MISS] = 0
	Total_core_cache_stats_breakdown[LOCAL_ACC_R][RESERVATION_FAIL] = 0
	Total_core_cache_stats_breakdown[LOCAL_ACC_R][SECTOR_MISS] = 0
	Total_core_cache_stats_breakdown[LOCAL_ACC_R][MSHR_HIT] = 0
	Total_core_cache_stats_breakdown[CONST_ACC_R][HIT] = 0
	Total_core_cache_stats_breakdown[CONST_ACC_R][HIT_RESERVED] = 0
	Total_core_cache_stats_breakdown[CONST_ACC_R][MISS] = 0
	Total_core_cache_stats_breakdown[CONST_ACC_R][RESERVATION_FAIL] = 0
	Total_core_cache_stats_breakdown[CONST_ACC_R][SECTOR_MISS] = 0
	Total_core_cache_stats_breakdown[CONST_ACC_R][MSHR_HIT] = 0
	Total_core_cache_stats_breakdown[TEXTURE_ACC_R][HIT] = 0
	Total_core_cache_stats_breakdown[TEXTURE_ACC_R][HIT_RESERVED] = 0
	Total_core_cache_stats_breakdown[TEXTURE_ACC_R][MISS] = 0
	Total_core_cache_stats_breakdown[TEXTURE_ACC_R][RESERVATION_FAIL] = 0
	Total_core_cache_stats_breakdown[TEXTURE_ACC_R][SECTOR_MISS] = 0
	Total_core_cache_stats_breakdown[TEXTURE_ACC_R][MSHR_HIT] = 0
	Total_core_cache_stats_breakdown[GLOBAL_ACC_W][HIT] = 16809984
	Total_core_cache_stats_breakdown[GLOBAL_ACC_W][HIT_RESERVED] = 0
	Total_core_cache_stats_breakdown[GLOBAL_ACC_W][MISS] = 0
	Total_core_cache_stats_breakdown[GLOBAL_ACC_W][RESERVATION_FAIL] = 9884118
	Total_core_cache_stats_breakdown[GLOBAL_ACC_W][SECTOR_MISS] = 0
	Total_core_cache_stats_breakdown[GLOBAL_ACC_W][MSHR_HIT] = 0
	Total_core_cache_stats_breakdown[LOCAL_ACC_W][HIT] = 0
	Total_core_cache_stats_breakdown[LOCAL_ACC_W][HIT_RESERVED] = 0
	Total_core_cache_stats_breakdown[LOCAL_ACC_W][MISS] = 0
	Total_core_cache_stats_breakdown[LOCAL_ACC_W][RESERVATION_FAIL] = 0
	Total_core_cache_stats_breakdown[LOCAL_ACC_W][SECTOR_MISS] = 0
	Total_core_cache_stats_breakdown[LOCAL_ACC_W][MSHR_HIT] = 0
	Total_core_cache_stats_breakdown[L1_WRBK_ACC][HIT] = 0
	Total_core_cache_stats_breakdown[L1_WRBK_ACC][HIT_RESERVED] = 0
	Total_core_cache_stats_breakdown[L1_WRBK_ACC][MISS] = 0
	Total_core_cache_stats_breakdown[L1_WRBK_ACC][RESERVATION_FAIL] = 0
	Total_core_cache_stats_breakdown[L1_WRBK_ACC][SECTOR_MISS] = 0
	Total_core_cache_stats_breakdown[L1_WRBK_ACC][MSHR_HIT] = 0
	Total_core_cache_stats_breakdown[L2_WRBK_ACC][HIT] = 0
	Total_core_cache_stats_breakdown[L2_WRBK_ACC][HIT_RESERVED] = 0
	Total_core_cache_stats_breakdown[L2_WRBK_ACC][MISS] = 0
	Total_core_cache_stats_breakdown[L2_WRBK_ACC][RESERVATION_FAIL] = 0
	Total_core_cache_stats_breakdown[L2_WRBK_ACC][SECTOR_MISS] = 0
	Total_core_cache_stats_breakdown[L2_WRBK_ACC][MSHR_HIT] = 0
	Total_core_cache_stats_breakdown[INST_ACC_R][HIT] = 0
	Total_core_cache_stats_breakdown[INST_ACC_R][HIT_RESERVED] = 0
	Total_core_cache_stats_breakdown[INST_ACC_R][MISS] = 0
	Total_core_cache_stats_breakdown[INST_ACC_R][RESERVATION_FAIL] = 0
	Total_core_cache_stats_breakdown[INST_ACC_R][SECTOR_MISS] = 0
	Total_core_cache_stats_breakdown[INST_ACC_R][MSHR_HIT] = 0
	Total_core_cache_stats_breakdown[L1_WR_ALLOC_R][HIT] = 0
	Total_core_cache_stats_breakdown[L1_WR_ALLOC_R][HIT_RESERVED] = 0
	Total_core_cache_stats_breakdown[L1_WR_ALLOC_R][MISS] = 0
	Total_core_cache_stats_breakdown[L1_WR_ALLOC_R][RESERVATION_FAIL] = 0
	Total_core_cache_stats_breakdown[L1_WR_ALLOC_R][SECTOR_MISS] = 0
	Total_core_cache_stats_breakdown[L1_WR_ALLOC_R][MSHR_HIT] = 0
	Total_core_cache_stats_breakdown[L2_WR_ALLOC_R][HIT] = 0
	Total_core_cache_stats_breakdown[L2_WR_ALLOC_R][HIT_RESERVED] = 0
	Total_core_cache_stats_breakdown[L2_WR_ALLOC_R][MISS] = 0
	Total_core_cache_stats_breakdown[L2_WR_ALLOC_R][RESERVATION_FAIL] = 0
	Total_core_cache_stats_breakdown[L2_WR_ALLOC_R][SECTOR_MISS] = 0
	Total_core_cache_stats_breakdown[L2_WR_ALLOC_R][MSHR_HIT] = 0
	Total_core_cache_stats_breakdown[GLOBAL_ACC_R][TOTAL_ACCESS] = 21004288
	Total_core_cache_stats_breakdown[GLOBAL_ACC_W][TOTAL_ACCESS] = 16809984

Total_core_cache_fail_stats:
	Total_core_cache_fail_stats_breakdown[GLOBAL_ACC_R][MISS_QUEUE_FULL] = 5626847
	Total_core_cache_fail_stats_breakdown[GLOBAL_ACC_R][MSHR_MERGE_ENRTY_FAIL] = 112675688
	Total_core_cache_fail_stats_breakdown[GLOBAL_ACC_W][MISS_QUEUE_FULL] = 9884118
ctas_completed 1024, Shader 0 warp_id issue ditsribution:
warp_id:
0, 1, 2, 3, 4, 5, 6, 7, 8, 9, 10, 11, 12, 13, 14, 15, 16, 17, 18, 19, 20, 21, 22, 23, 24, 25, 26, 27, 28, 29, 30, 31, 32, 33, 34, 35, 36, 37, 38, 39, 40, 41, 42, 43, 44, 45, 46, 47, 48, 49, 50, 51, 52, 53, 54, 55, 56, 57, 58, 59, 60, 61, 62, 63, 
distro:
6206, 6206, 6206, 6206, 6206, 6206, 6206, 6206, 6206, 6206, 6206, 6206, 6206, 6206, 6206, 6206, 6206, 6206, 6206, 6206, 6206, 6206, 6206, 6206, 6206, 6206, 6206, 6206, 6206, 6206, 6206, 6206, 6206, 6206, 6206, 6206, 6206, 6206, 6206, 6206, 6206, 6206, 6206, 6206, 6206, 6206, 6206, 6206, 6206, 6206, 6206, 6206, 6206, 6206, 6206, 6206, 6206, 6206, 6206, 6206, 6206, 6206, 6206, 6206, 
gpgpu_n_tot_thrd_icount = 813432832
gpgpu_n_tot_w_icount = 25419776
gpgpu_n_stall_shd_mem = 31849704
gpgpu_n_mem_read_local = 0
gpgpu_n_mem_write_local = 0
gpgpu_n_mem_read_global = 1321432
gpgpu_n_mem_write_global = 16809984
gpgpu_n_mem_texture = 0
gpgpu_n_mem_const = 0
gpgpu_n_load_insn  = 268697600
gpgpu_n_store_insn = 134479872
gpgpu_n_shmem_insn = 0
gpgpu_n_sstarr_insn = 0
gpgpu_n_tex_insn = 0
gpgpu_n_const_mem_insn = 0
gpgpu_n_param_mem_insn = 786432
gpgpu_n_shmem_bkconflict = 0
gpgpu_n_l1cache_bkconflict = 31849704
gpgpu_n_intrawarp_mshr_merge = 0
gpgpu_n_cmem_portconflict = 0
gpgpu_stall_shd_mem[c_mem][resource_stall] = 0
gpgpu_stall_shd_mem[s_mem][bk_conf] = 0
gpgpu_stall_shd_mem[gl_mem][resource_stall] = 31849704
gpgpu_stall_shd_mem[gl_mem][coal_stall] = 0
gpgpu_stall_shd_mem[gl_mem][data_port_stall] = 0
gpu_reg_bank_conflict_stalls = 0
Warp Occupancy Distribution:
Stall:142593479	W0_Idle:607312	W0_Scoreboard:81670801	W1:0	W2:0	W3:0	W4:0	W5:0	W6:0	W7:0	W8:0	W9:0	W10:0	W11:0	W12:0	W13:0	W14:0	W15:0	W16:0	W17:0	W18:0	W19:0	W20:0	W21:0	W22:0	W23:0	W24:0	W25:0	W26:0	W27:0	W28:0	W29:0	W30:0	W31:0	W32:25419776
single_issue_nums: WS0:6354944	WS1:6354944	WS2:6354944	WS3:6354944	
dual_issue_nums: WS0:0	WS1:0	WS2:0	WS3:0	
traffic_breakdown_coretomem[GLOBAL_ACC_R] = 10571456 {8:1321432,}
traffic_breakdown_coretomem[GLOBAL_ACC_W] = 672399360 {40:16809984,}
traffic_breakdown_memtocore[GLOBAL_ACC_R] = 52857280 {40:1321432,}
traffic_breakdown_memtocore[GLOBAL_ACC_W] = 134479872 {8:16809984,}
maxmflatency = 8342 
max_icnt2mem_latency = 3947 
maxmrqlatency = 76 
max_icnt2sh_latency = 5683 
averagemflatency = 747 
avg_icnt2mem_latency = 415 
avg_mrq_latency = 3 
avg_icnt2sh_latency = 152 
mrq_lat_table:14768 	8961 	763 	199 	611 	1140 	2 	0 	0 	0 	0 	0 	0 	0 	0 	0 	0 	0 	0 	0 	0 	0 	0 	0 	0 	0 	0 	0 	0 	0 	0 	0 	
dq_lat_table:0 	0 	0 	0 	0 	0 	0 	0 	0 	0 	0 	0 	0 	0 	0 	0 	0 	0 	0 	0 	0 	0 	0 	0 	0 	0 	0 	0 	0 	0 	0 	0 	
mf_lat_table:0 	0 	0 	0 	0 	0 	0 	2038377 	3695668 	9514249 	2304005 	558993 	19991 	133 	0 	0 	0 	0 	0 	0 	0 	0 	0 	0 	0 	0 	0 	0 	0 	0 	0 	0 	
icnt2mem_lat_table:0 	0 	0 	0 	543642 	2289413 	2009053 	1887918 	4204481 	6585926 	601639 	9344 	0 	0 	0 	0 	0 	0 	0 	0 	0 	0 	0 	0 	
icnt2sh_lat_table:0 	3345933 	2789514 	2799466 	2553143 	1713637 	1034787 	1010620 	797665 	1297947 	759877 	26059 	2768 	0 	0 	0 	0 	0 	0 	0 	0 	0 	0 	0 	
mf_lat_pw_table:0 	0 	0 	0 	0 	0 	0 	88 	42 	1948 	71 	4 	0 	0 	0 	0 	0 	0 	0 	0 	0 	0 	0 	0 	0 	0 	0 	0 	0 	0 	0 	0 	
maximum concurrent accesses to same row:
dram[0]:        64        64        32        36        56        56        64        64        64        64        64        64        64        64        32        32 
dram[1]:        64        64        32        34        60        64        64        64        64        64        64        64        64        64        32        32 
dram[2]:        64        64        34        32        56        62        64        64        64        64        64        64        64        64        32        32 
dram[3]:        64        64        32        34        64        56        64        64        64        64        64        64        64        64        32        48 
dram[4]:        64        64        32        38        59        48        64        64        64        64        64        64        64        64        48        32 
dram[5]:        64        64        36        32        64        60        64        64        64        64        64        64        64        64        32        56 
dram[6]:        64        64        36        32        64        58        64        64        64        64        64        64        64        64        32        44 
dram[7]:        64        64        32        38        58        64        64        64        64        64        64        64        64        64        40        32 
dram[8]:         0         0         0         0         0         0         0         0         0         0         0         0         0         0         0         0 
dram[9]:         0         0         0         0         0         0         0         0         0         0         0         0         0         0         0         0 
dram[10]:         0         0         0         0         0         0         0         0         0         0         0         0         0         0         0         0 
dram[11]:         0         0         0         0         0         0         0         0         0         0         0         0         0         0         0         0 
dram[12]:         0         0         0         0         0         0         0         0         0         0         0         0         0         0         0         0 
dram[13]:         0         0         0         0         0         0         0         0         0         0         0         0         0         0         0         0 
dram[14]:         0         0         0         0         0         0         0         0         0         0         0         0         0         0         0         0 
dram[15]:         0         0         0         0         0         0         0         0         0         0         0         0         0         0         0         0 
dram[16]:         0         0         0         0         0         0         0         0         0         0         0         0         0         0         0         0 
dram[17]:         0         0         0         0         0         0         0         0         0         0         0         0         0         0         0         0 
dram[18]:         0         0         0         0         0         0         0         0         0         0         0         0         0         0         0         0 
dram[19]:         0         0         0         0         0         0         0         0         0         0         0         0         0         0         0         0 
dram[20]:         0         0         0         0         0         0         0         0         0         0         0         0         0         0         0         0 
dram[21]:         0         0         0         0         0         0         0         0         0         0         0         0         0         0         0         0 
dram[22]:         0         0         0         0         0         0         0         0         0         0         0         0         0         0         0         0 
dram[23]:         0         0         0         0         0         0         0         0         0         0         0         0         0         0         0         0 
maximum service time to same row:
dram[0]:    431896    539318    241267    244800    339120    402196    294398    321133    468969    410366    255292    281770    495027    434662    270350    285154 
dram[1]:    539755    431958    242804    241268    402531    341956    310787    297538    408706    471431    279271    264087    435353    495078    281727    276013 
dram[2]:    549391    432109    243161    234731    398352    341905    315369    295024    410102    470776    279936    252234    435400    494814    282715    273108 
dram[3]:    432799    539787    242574    245691    337475    400248    293095    316884    467543    412911    245099    291289    495041    435412    269141    285885 
dram[4]:    539331    434288    254892    223243    400771    344494    325182    298967    404059    466907    262950    242980    435024    495192    295498    287651 
dram[5]:    434373    539333    230732    257646    341760    403407    296330    327850    464505    406864    240408    273162    495134    435853    284009    298122 
dram[6]:    434093    550361    227402    256815    340273    403759    295174    328316    466418    408588    242560    272266    495189    435716    285571    297535 
dram[7]:    538306    432731    253169    230538    400973    350360    325166    297912    405920    469121    269848    247835    435699    494997    294401    288387 
dram[8]:         0         0         0         0         0         0         0         0         0         0         0         0         0         0         0         0 
dram[9]:         0         0         0         0         0         0         0         0         0         0         0         0         0         0         0         0 
dram[10]:         0         0         0         0         0         0         0         0         0         0         0         0         0         0         0         0 
dram[11]:         0         0         0         0         0         0         0         0         0         0         0         0         0         0         0         0 
dram[12]:         0         0         0         0         0         0         0         0         0         0         0         0         0         0         0         0 
dram[13]:         0         0         0         0         0         0         0         0         0         0         0         0         0         0         0         0 
dram[14]:         0         0         0         0         0         0         0         0         0         0         0         0         0         0         0         0 
dram[15]:         0         0         0         0         0         0         0         0         0         0         0         0         0         0         0         0 
dram[16]:         0         0         0         0         0         0         0         0         0         0         0         0         0         0         0         0 
dram[17]:         0         0         0         0         0         0         0         0         0         0         0         0         0         0         0         0 
dram[18]:         0         0         0         0         0         0         0         0         0         0         0         0         0         0         0         0 
dram[19]:         0         0         0         0         0         0         0         0         0         0         0         0         0         0         0         0 
dram[20]:         0         0         0         0         0         0         0         0         0         0         0         0         0         0         0         0 
dram[21]:         0         0         0         0         0         0         0         0         0         0         0         0         0         0         0         0 
dram[22]:         0         0         0         0         0         0         0         0         0         0         0         0         0         0         0         0 
dram[23]:         0         0         0         0         0         0         0         0         0         0         0         0         0         0         0         0 
average row accesses per activate:
dram[0]: 22.000000 44.000000 24.000000 19.200001 21.600000 17.333334 42.000000 16.533333 58.000000 30.857143 43.428570 16.666666 48.000000 48.000000 13.000000 22.857143 
dram[1]: 44.000000 22.000000 16.000000 32.000000 22.666666 25.000000 19.692308 41.333332 32.571430 54.000000 22.857143 44.571430 48.000000 48.000000 21.714285 13.333333 
dram[2]: 44.000000 42.000000 24.000000 19.200001 17.333334 33.333332 13.473684 41.333332 32.571430 54.000000 16.631578 44.571430 48.000000 48.000000 21.714285 11.428572 
dram[3]: 22.000000 22.000000 24.000000 19.200001 26.000000 17.333334 42.000000 16.533333 58.000000 55.000000 34.666668 23.692308 48.000000 48.000000 10.000000 32.000000 
dram[4]: 22.000000 16.799999 24.000000 24.000000 17.333334 32.000000 16.000000 40.000000 25.777779 54.000000 19.000000 44.571430 48.000000 48.000000 32.000000 14.000000 
dram[5]: 17.600000 29.333334 19.200001 24.000000 34.000000 23.111111 40.000000 21.818182 58.000000 24.000000 44.571430 16.888889 48.000000 48.000000 15.600000 33.599998 
dram[6]: 43.000000 17.600000 19.200001 16.000000 30.285715 17.333334 40.000000 14.117647 58.000000 30.857143 35.111111 16.888889 48.000000 48.000000 14.800000 31.200001 
dram[7]: 14.666667 16.799999 19.200001 19.200001 20.799999 39.200001 16.000000 40.000000 38.666668 54.000000 18.117647 44.571430 48.000000 48.000000 30.400000 16.000000 
dram[8]:      -nan      -nan      -nan      -nan      -nan      -nan      -nan      -nan      -nan      -nan      -nan      -nan      -nan      -nan      -nan      -nan 
dram[9]:      -nan      -nan      -nan      -nan      -nan      -nan      -nan      -nan      -nan      -nan      -nan      -nan      -nan      -nan      -nan      -nan 
dram[10]:      -nan      -nan      -nan      -nan      -nan      -nan      -nan      -nan      -nan      -nan      -nan      -nan      -nan      -nan      -nan      -nan 
dram[11]:      -nan      -nan      -nan      -nan      -nan      -nan      -nan      -nan      -nan      -nan      -nan      -nan      -nan      -nan      -nan      -nan 
dram[12]:      -nan      -nan      -nan      -nan      -nan      -nan      -nan      -nan      -nan      -nan      -nan      -nan      -nan      -nan      -nan      -nan 
dram[13]:      -nan      -nan      -nan      -nan      -nan      -nan      -nan      -nan      -nan      -nan      -nan      -nan      -nan      -nan      -nan      -nan 
dram[14]:      -nan      -nan      -nan      -nan      -nan      -nan      -nan      -nan      -nan      -nan      -nan      -nan      -nan      -nan      -nan      -nan 
dram[15]:      -nan      -nan      -nan      -nan      -nan      -nan      -nan      -nan      -nan      -nan      -nan      -nan      -nan      -nan      -nan      -nan 
dram[16]:      -nan      -nan      -nan      -nan      -nan      -nan      -nan      -nan      -nan      -nan      -nan      -nan      -nan      -nan      -nan      -nan 
dram[17]:      -nan      -nan      -nan      -nan      -nan      -nan      -nan      -nan      -nan      -nan      -nan      -nan      -nan      -nan      -nan      -nan 
dram[18]:      -nan      -nan      -nan      -nan      -nan      -nan      -nan      -nan      -nan      -nan      -nan      -nan      -nan      -nan      -nan      -nan 
dram[19]:      -nan      -nan      -nan      -nan      -nan      -nan      -nan      -nan      -nan      -nan      -nan      -nan      -nan      -nan      -nan      -nan 
dram[20]:      -nan      -nan      -nan      -nan      -nan      -nan      -nan      -nan      -nan      -nan      -nan      -nan      -nan      -nan      -nan      -nan 
dram[21]:      -nan      -nan      -nan      -nan      -nan      -nan      -nan      -nan      -nan      -nan      -nan      -nan      -nan      -nan      -nan      -nan 
dram[22]:      -nan      -nan      -nan      -nan      -nan      -nan      -nan      -nan      -nan      -nan      -nan      -nan      -nan      -nan      -nan      -nan 
dram[23]:      -nan      -nan      -nan      -nan      -nan      -nan      -nan      -nan      -nan      -nan      -nan      -nan      -nan      -nan      -nan      -nan 
average row locality = 26444/1049 = 25.208771
number of total memory accesses made:
dram[0]:         0         0         0         0         0         0         0         0         0         0         0         0         0         0         0         0 
dram[1]:         0         0         0         0         0         0         0         0         0         0         0         0         0         0         0         0 
dram[2]:         0         0         0         0         0         0         0         0         0         0         0         0         0         0         0         0 
dram[3]:         0         0         0         0         0         0         0         0         0         0         0         0         0         0         0         0 
dram[4]:         0         0         0         0         0         0         0         0         0         0         0         0         0         0         0         0 
dram[5]:         0         0         0         0         0         0         0         0         0         0         0         0         0         0         0         0 
dram[6]:         0         0         0         0         0         0         0         0         0         0         0         0         0         0         0         0 
dram[7]:         0         0         0         0         0         0         0         0         0         0         0         0         0         0         0         0 
dram[8]:         0         0         0         0         0         0         0         0         0         0         0         0         0         0         0         0 
dram[9]:         0         0         0         0         0         0         0         0         0         0         0         0         0         0         0         0 
dram[10]:         0         0         0         0         0         0         0         0         0         0         0         0         0         0         0         0 
dram[11]:         0         0         0         0         0         0         0         0         0         0         0         0         0         0         0         0 
dram[12]:         0         0         0         0         0         0         0         0         0         0         0         0         0         0         0         0 
dram[13]:         0         0         0         0         0         0         0         0         0         0         0         0         0         0         0         0 
dram[14]:         0         0         0         0         0         0         0         0         0         0         0         0         0         0         0         0 
dram[15]:         0         0         0         0         0         0         0         0         0         0         0         0         0         0         0         0 
dram[16]:         0         0         0         0         0         0         0         0         0         0         0         0         0         0         0         0 
dram[17]:         0         0         0         0         0         0         0         0         0         0         0         0         0         0         0         0 
dram[18]:         0         0         0         0         0         0         0         0         0         0         0         0         0         0         0         0 
dram[19]:         0         0         0         0         0         0         0         0         0         0         0         0         0         0         0         0 
dram[20]:         0         0         0         0         0         0         0         0         0         0         0         0         0         0         0         0 
dram[21]:         0         0         0         0         0         0         0         0         0         0         0         0         0         0         0         0 
dram[22]:         0         0         0         0         0         0         0         0         0         0         0         0         0         0         0         0 
dram[23]:         0         0         0         0         0         0         0         0         0         0         0         0         0         0         0         0 
total accesses: 0
min_bank_accesses = 0!
min_chip_accesses = 0!
number of total read accesses:
dram[0]:       192       192       176       176       224       224       240       236       272       252       272       256        96        92       208       208 
dram[1]:       192       192       176       176       224       224       228       232       280       268       272       256        96        96       208       200 
dram[2]:       192       192       176       168       224       224       232       232       276       268       272       256        96        96       208       200 
dram[3]:       192       192       176       176       224       224       232       236       276       268       272       256        96        96       208       208 
dram[4]:       192       192       176       168       224       224       224       208       276       260       272       256        96        96       216       208 
dram[5]:       192       192       176       176       224       224       220       224       280       264       272       248        96        88       216       212 
dram[6]:       192       192       172       176       224       224       228       224       280       260       272       256        96        84       204       208 
dram[7]:       192       192       176       168       224       224       224       212       272       268       272       256        96        96       208       200 
dram[8]:         0         0         0         0         0         0         0         0         0         0         0         0         0         0         0         0 
dram[9]:         0         0         0         0         0         0         0         0         0         0         0         0         0         0         0         0 
dram[10]:         0         0         0         0         0         0         0         0         0         0         0         0         0         0         0         0 
dram[11]:         0         0         0         0         0         0         0         0         0         0         0         0         0         0         0         0 
dram[12]:         0         0         0         0         0         0         0         0         0         0         0         0         0         0         0         0 
dram[13]:         0         0         0         0         0         0         0         0         0         0         0         0         0         0         0         0 
dram[14]:         0         0         0         0         0         0         0         0         0         0         0         0         0         0         0         0 
dram[15]:         0         0         0         0         0         0         0         0         0         0         0         0         0         0         0         0 
dram[16]:         0         0         0         0         0         0         0         0         0         0         0         0         0         0         0         0 
dram[17]:         0         0         0         0         0         0         0         0         0         0         0         0         0         0         0         0 
dram[18]:         0         0         0         0         0         0         0         0         0         0         0         0         0         0         0         0 
dram[19]:         0         0         0         0         0         0         0         0         0         0         0         0         0         0         0         0 
dram[20]:         0         0         0         0         0         0         0         0         0         0         0         0         0         0         0         0 
dram[21]:         0         0         0         0         0         0         0         0         0         0         0         0         0         0         0         0 
dram[22]:         0         0         0         0         0         0         0         0         0         0         0         0         0         0         0         0 
dram[23]:         0         0         0         0         0         0         0         0         0         0         0         0         0         0         0         0 
total dram reads = 26444
min_bank_accesses = 0!
min_chip_accesses = 0!
number of total write accesses:
dram[0]:        12        16         0         8         8         8         8         0         0         0         0         0         4         4        56        48 
dram[1]:        16        16         4         4         0        16         8         0         0         0         0         0         0         8        56        48 
dram[2]:        12        16         0         8         8         8         8         0         0         0         0         0         4         4        56        48 
dram[3]:        16        12         4         4         0        16         8         0         0         0         0         0         0         8        56        48 
dram[4]:        48        48         8         0         0         8        12         4         0         0         0         0         8         0        20        12 
dram[5]:        48        48         8         0         4         0         0        16         0         0         0         0         8         0        12        20 
dram[6]:        48        48         8         0         0         8        12         4         0         0         0         0         8         0        16        16 
dram[7]:        56        48         8         0         8         0         0        16         0         0         0         0         8         0        16         8 
dram[8]:         0         0         0         0         0         0         0         0         0         0         0         0         0         0         0         0 
dram[9]:         0         0         0         0         0         0         0         0         0         0         0         0         0         0         0         0 
dram[10]:         0         0         0         0         0         0         0         0         0         0         0         0         0         0         0         0 
dram[11]:         0         0         0         0         0         0         0         0         0         0         0         0         0         0         0         0 
dram[12]:         0         0         0         0         0         0         0         0         0         0         0         0         0         0         0         0 
dram[13]:         0         0         0         0         0         0         0         0         0         0         0         0         0         0         0         0 
dram[14]:         0         0         0         0         0         0         0         0         0         0         0         0         0         0         0         0 
dram[15]:         0         0         0         0         0         0         0         0         0         0         0         0         0         0         0         0 
dram[16]:         0         0         0         0         0         0         0         0         0         0         0         0         0         0         0         0 
dram[17]:         0         0         0         0         0         0         0         0         0         0         0         0         0         0         0         0 
dram[18]:         0         0         0         0         0         0         0         0         0         0         0         0         0         0         0         0 
dram[19]:         0         0         0         0         0         0         0         0         0         0         0         0         0         0         0         0 
dram[20]:         0         0         0         0         0         0         0         0         0         0         0         0         0         0         0         0 
dram[21]:         0         0         0         0         0         0         0         0         0         0         0         0         0         0         0         0 
dram[22]:         0         0         0         0         0         0         0         0         0         0         0         0         0         0         0         0 
dram[23]:         0         0         0         0         0         0         0         0         0         0         0         0         0         0         0         0 
total dram writes = 1360
min_bank_accesses = 0!
min_chip_accesses = 0!
average mf latency per bank:
dram[0]:     218688    215651    253046    239139    179974    182076    181128    191975    384111    414413    444504    494548    938949    961215    340657    349178
dram[1]:     207580    205300    237931    235798    187268    176350    191328    198562    393575    412233    456916    507741    841890    775199    305511    325008
dram[2]:     211095    206043    242879    238845    177481    178917    180274    189114    284812    294653    346448    393450    808623    804888    272909    308664
dram[3]:     215632    216792    239184    237109    182710    171519    187436    192841    303976    313005    360570    405656    874341    821789    312843    308965
dram[4]:     172656    172251    233623    262160    192317    183105    179261    198328    297880    317100    349849    384079    780065    784780    331525    335907
dram[5]:     171582    172222    237816    251163    184360    187440    189264    172892    225716    241027    282429    327332    835894   1124028    372642    356921
dram[6]:     171168    170761    240093    248144    186808    178169    175448    186644    220131    237419    271894    311103    918653   1099743    371441    370254
dram[7]:     169580    176199    238934    264264    184506    189561    193589    187395    334092    340482    382399    413645    897450    965579    383199    417855
dram[8]:     none      none      none      none      none      none      none      none      none      none      none      none      none      none      none      none  
dram[9]:     none      none      none      none      none      none      none      none      none      none      none      none      none      none      none      none  
dram[10]:     none      none      none      none      none      none      none      none      none      none      none      none      none      none      none      none  
dram[11]:     none      none      none      none      none      none      none      none      none      none      none      none      none      none      none      none  
dram[12]:     none      none      none      none      none      none      none      none      none      none      none      none      none      none      none      none  
dram[13]:     none      none      none      none      none      none      none      none      none      none      none      none      none      none      none      none  
dram[14]:     none      none      none      none      none      none      none      none      none      none      none      none      none      none      none      none  
dram[15]:     none      none      none      none      none      none      none      none      none      none      none      none      none      none      none      none  
dram[16]:     none      none      none      none      none      none      none      none      none      none      none      none      none      none      none      none  
dram[17]:     none      none      none      none      none      none      none      none      none      none      none      none      none      none      none      none  
dram[18]:     none      none      none      none      none      none      none      none      none      none      none      none      none      none      none      none  
dram[19]:     none      none      none      none      none      none      none      none      none      none      none      none      none      none      none      none  
dram[20]:     none      none      none      none      none      none      none      none      none      none      none      none      none      none      none      none  
dram[21]:     none      none      none      none      none      none      none      none      none      none      none      none      none      none      none      none  
dram[22]:     none      none      none      none      none      none      none      none      none      none      none      none      none      none      none      none  
dram[23]:     none      none      none      none      none      none      none      none      none      none      none      none      none      none      none      none  
maximum mf latency per bank:
dram[0]:       2923      3572      3951      3258      3480      4120      4291      3950      4662      4033      4534      4223      3856      3717      4092      3940
dram[1]:       2369      2837      2920      3640      4221      3731      3271      4575      5161      3936      4669      4448      3346      3765      3503      4407
dram[2]:       2226      4737      4694      4724      3912      2968      2874      2681      3047      3202      4221      4259      5215      5048      3715      5122
dram[3]:       6292      3830      4810      6105      3862      3047      4540      3520      3676      3799      4229      4114      6335      6330      6227      4407
dram[4]:       2768      2716      2823      2787      2894      3675      3220      3630      3115      5044      4286      4830      3176      2949      2976      2844
dram[5]:       7072      6957      7188      7249      2493      3599      2505      2649      3008      2965      4321      4029      7397      7370      7311      7098
dram[6]:       7384      4983      7398      7112      2471      2390      3758      3280      3236      3668      4099      4036      7637      7659      7509      7609
dram[7]:       2865      7870      8090      8236      2898      3566      3828      4133      4597      4621      4684      4372      8342      8281      8002      8285
dram[8]:       3109      2303      2306      2860      2108      1824      1849      1854      1743      1933      2607      2328      3037      2751      2816      2846
[...]
Issued_on_Two_Bus_Simul_Util = 0.000000 
issued_two_Eff = -nan 
queue_avg = 0.000000 


dram_util_bins: 0 0 0 0 0 0 0 0 0 0
dram_eff_bins: 0 0 0 0 0 0 0 0 0 0
mrqq: max=0 avg=0
Memory Partition 19: 
Cache L2_bank_038:
MSHR contents

Cache L2_bank_039:
MSHR contents

In Dram Latency Queue (total = 0): 
DRAM[19]: 16 bks, busW=16 BL=2 CL=12, tRRD=3 tCCD=1, tRCD=12 tRAS=28 tRP=12 tRC=40
n_cmd=763163 n_nop=763163 n_act=0 n_pre=0 n_ref_event=0 n_req=0 n_rd=0 n_rd_L2_A=0 n_write=0 n_wr_bk=0 bw_util=0
n_activity=0 dram_eff=-nan
bk0: 0a 763163i bk1: 0a 763163i bk2: 0a 763163i bk3: 0a 763163i bk4: 0a 763163i bk5: 0a 763163i bk6: 0a 763163i bk7: 0a 763163i bk8: 0a 763163i bk9: 0a 763163i bk10: 0a 763163i bk11: 0a 763163i bk12: 0a 763163i bk13: 0a 763163i bk14: 0a 763163i bk15: 0a 763163i 

------------------------------------------------------------------------

Row_Buffer_Locality = -nan
Row_Buffer_Locality_read = -nan
Row_Buffer_Locality_write = -nan
Bank_Level_Parallism = -nan
Bank_Level_Parallism_Col = -nan
Bank_Level_Parallism_Ready = -nan
write_to_read_ratio_blp_rw_average = -nan
GrpLevelPara = -nan 

BW Util details:
bwutil = 0.000000 
total_CMD = 763163 
util_bw = 0 
Wasted_Col = 0 
Wasted_Row = 0 
Idle = 763163 

BW Util Bottlenecks: 
RCDc_limit = 0 
RCDWRc_limit = 0 
WTRc_limit = 0 
RTWc_limit = 0 
CCDLc_limit = 0 
rwq = 0 
CCDLc_limit_alone = 0 
WTRc_limit_alone = 0 
RTWc_limit_alone = 0 

Commands details: 
total_CMD = 763163 
n_nop = 763163 
Read = 0 
Write = 0 
L2_Alloc = 0 
L2_WB = 0 
n_act = 0 
n_pre = 0 
n_ref = 0 
n_req = 0 
total_req = 0 

Dual Bus Interface Util: 
issued_total_row = 0 
issued_total_col = 0 
Row_Bus_Util =  0.000000 
CoL_Bus_Util = 0.000000 
Either_Row_CoL_Bus_Util = 0.000000 
Issued_on_Two_Bus_Simul_Util = 0.000000 
issued_two_Eff = -nan 
queue_avg = 0.000000 


dram_util_bins: 0 0 0 0 0 0 0 0 0 0
dram_eff_bins: 0 0 0 0 0 0 0 0 0 0
mrqq: max=0 avg=0
Memory Partition 20: 
Cache L2_bank_040:
MSHR contents

Cache L2_bank_041:
MSHR contents

In Dram Latency Queue (total = 0): 
DRAM[20]: 16 bks, busW=16 BL=2 CL=12, tRRD=3 tCCD=1, tRCD=12 tRAS=28 tRP=12 tRC=40
n_cmd=763163 n_nop=763163 n_act=0 n_pre=0 n_ref_event=0 n_req=0 n_rd=0 n_rd_L2_A=0 n_write=0 n_wr_bk=0 bw_util=0
n_activity=0 dram_eff=-nan
bk0: 0a 763163i bk1: 0a 763163i bk2: 0a 763163i bk3: 0a 763163i bk4: 0a 763163i bk5: 0a 763163i bk6: 0a 763163i bk7: 0a 763163i bk8: 0a 763163i bk9: 0a 763163i bk10: 0a 763163i bk11: 0a 763163i bk12: 0a 763163i bk13: 0a 763163i bk14: 0a 763163i bk15: 0a 763163i 

------------------------------------------------------------------------

Row_Buffer_Locality = -nan
Row_Buffer_Locality_read = -nan
Row_Buffer_Locality_write = -nan
Bank_Level_Parallism = -nan
Bank_Level_Parallism_Col = -nan
Bank_Level_Parallism_Ready = -nan
write_to_read_ratio_blp_rw_average = -nan
GrpLevelPara = -nan 

BW Util details:
bwutil = 0.000000 
total_CMD = 763163 
util_bw = 0 
Wasted_Col = 0 
Wasted_Row = 0 
Idle = 763163 

BW Util Bottlenecks: 
RCDc_limit = 0 
RCDWRc_limit = 0 
WTRc_limit = 0 
RTWc_limit = 0 
CCDLc_limit = 0 
rwq = 0 
CCDLc_limit_alone = 0 
WTRc_limit_alone = 0 
RTWc_limit_alone = 0 

Commands details: 
total_CMD = 763163 
n_nop = 763163 
Read = 0 
Write = 0 
L2_Alloc = 0 
L2_WB = 0 
n_act = 0 
n_pre = 0 
n_ref = 0 
n_req = 0 
total_req = 0 

Dual Bus Interface Util: 
issued_total_row = 0 
issued_total_col = 0 
Row_Bus_Util =  0.000000 
CoL_Bus_Util = 0.000000 
Either_Row_CoL_Bus_Util = 0.000000 
Issued_on_Two_Bus_Simul_Util = 0.000000 
issued_two_Eff = -nan 
queue_avg = 0.000000 


dram_util_bins: 0 0 0 0 0 0 0 0 0 0
dram_eff_bins: 0 0 0 0 0 0 0 0 0 0
mrqq: max=0 avg=0
Memory Partition 21: 
Cache L2_bank_042:
MSHR contents

Cache L2_bank_043:
MSHR contents

In Dram Latency Queue (total = 0): 
DRAM[21]: 16 bks, busW=16 BL=2 CL=12, tRRD=3 tCCD=1, tRCD=12 tRAS=28 tRP=12 tRC=40
n_cmd=763163 n_nop=763163 n_act=0 n_pre=0 n_ref_event=0 n_req=0 n_rd=0 n_rd_L2_A=0 n_write=0 n_wr_bk=0 bw_util=0
n_activity=0 dram_eff=-nan
bk0: 0a 763163i bk1: 0a 763163i bk2: 0a 763163i bk3: 0a 763163i bk4: 0a 763163i bk5: 0a 763163i bk6: 0a 763163i bk7: 0a 763163i bk8: 0a 763163i bk9: 0a 763163i bk10: 0a 763163i bk11: 0a 763163i bk12: 0a 763163i bk13: 0a 763163i bk14: 0a 763163i bk15: 0a 763163i 

------------------------------------------------------------------------

Row_Buffer_Locality = -nan
Row_Buffer_Locality_read = -nan
Row_Buffer_Locality_write = -nan
Bank_Level_Parallism = -nan
Bank_Level_Parallism_Col = -nan
Bank_Level_Parallism_Ready = -nan
write_to_read_ratio_blp_rw_average = -nan
GrpLevelPara = -nan 

BW Util details:
bwutil = 0.000000 
total_CMD = 763163 
util_bw = 0 
Wasted_Col = 0 
Wasted_Row = 0 
Idle = 763163 

BW Util Bottlenecks: 
RCDc_limit = 0 
RCDWRc_limit = 0 
WTRc_limit = 0 
RTWc_limit = 0 
CCDLc_limit = 0 
rwq = 0 
CCDLc_limit_alone = 0 
WTRc_limit_alone = 0 
RTWc_limit_alone = 0 

Commands details: 
total_CMD = 763163 
n_nop = 763163 
Read = 0 
Write = 0 
L2_Alloc = 0 
L2_WB = 0 
n_act = 0 
n_pre = 0 
n_ref = 0 
n_req = 0 
total_req = 0 

Dual Bus Interface Util: 
issued_total_row = 0 
issued_total_col = 0 
Row_Bus_Util =  0.000000 
CoL_Bus_Util = 0.000000 
Either_Row_CoL_Bus_Util = 0.000000 
Issued_on_Two_Bus_Simul_Util = 0.000000 
issued_two_Eff = -nan 
queue_avg = 0.000000 


dram_util_bins: 0 0 0 0 0 0 0 0 0 0
dram_eff_bins: 0 0 0 0 0 0 0 0 0 0
mrqq: max=0 avg=0
Memory Partition 22: 
Cache L2_bank_044:
MSHR contents

Cache L2_bank_045:
MSHR contents

In Dram Latency Queue (total = 0): 
DRAM[22]: 16 bks, busW=16 BL=2 CL=12, tRRD=3 tCCD=1, tRCD=12 tRAS=28 tRP=12 tRC=40
n_cmd=763163 n_nop=763163 n_act=0 n_pre=0 n_ref_event=0 n_req=0 n_rd=0 n_rd_L2_A=0 n_write=0 n_wr_bk=0 bw_util=0
n_activity=0 dram_eff=-nan
bk0: 0a 763163i bk1: 0a 763163i bk2: 0a 763163i bk3: 0a 763163i bk4: 0a 763163i bk5: 0a 763163i bk6: 0a 763163i bk7: 0a 763163i bk8: 0a 763163i bk9: 0a 763163i bk10: 0a 763163i bk11: 0a 763163i bk12: 0a 763163i bk13: 0a 763163i bk14: 0a 763163i bk15: 0a 763163i 

------------------------------------------------------------------------

Row_Buffer_Locality = -nan
Row_Buffer_Locality_read = -nan
Row_Buffer_Locality_write = -nan
Bank_Level_Parallism = -nan
Bank_Level_Parallism_Col = -nan
Bank_Level_Parallism_Ready = -nan
write_to_read_ratio_blp_rw_average = -nan
GrpLevelPara = -nan 

BW Util details:
bwutil = 0.000000 
total_CMD = 763163 
util_bw = 0 
Wasted_Col = 0 
Wasted_Row = 0 
Idle = 763163 

BW Util Bottlenecks: 
RCDc_limit = 0 
RCDWRc_limit = 0 
WTRc_limit = 0 
RTWc_limit = 0 
CCDLc_limit = 0 
rwq = 0 
CCDLc_limit_alone = 0 
WTRc_limit_alone = 0 
RTWc_limit_alone = 0 

Commands details: 
total_CMD = 763163 
n_nop = 763163 
Read = 0 
Write = 0 
L2_Alloc = 0 
L2_WB = 0 
n_act = 0 
n_pre = 0 
n_ref = 0 
n_req = 0 
total_req = 0 

Dual Bus Interface Util: 
issued_total_row = 0 
issued_total_col = 0 
Row_Bus_Util =  0.000000 
CoL_Bus_Util = 0.000000 
Either_Row_CoL_Bus_Util = 0.000000 
Issued_on_Two_Bus_Simul_Util = 0.000000 
issued_two_Eff = -nan 
queue_avg = 0.000000 


dram_util_bins: 0 0 0 0 0 0 0 0 0 0
dram_eff_bins: 0 0 0 0 0 0 0 0 0 0
mrqq: max=0 avg=0
Memory Partition 23: 
Cache L2_bank_046:
MSHR contents

Cache L2_bank_047:
MSHR contents

In Dram Latency Queue (total = 0): 
DRAM[23]: 16 bks, busW=16 BL=2 CL=12, tRRD=3 tCCD=1, tRCD=12 tRAS=28 tRP=12 tRC=40
n_cmd=763163 n_nop=763163 n_act=0 n_pre=0 n_ref_event=0 n_req=0 n_rd=0 n_rd_L2_A=0 n_write=0 n_wr_bk=0 bw_util=0
n_activity=0 dram_eff=-nan
bk0: 0a 763163i bk1: 0a 763163i bk2: 0a 763163i bk3: 0a 763163i bk4: 0a 763163i bk5: 0a 763163i bk6: 0a 763163i bk7: 0a 763163i bk8: 0a 763163i bk9: 0a 763163i bk10: 0a 763163i bk11: 0a 763163i bk12: 0a 763163i bk13: 0a 763163i bk14: 0a 763163i bk15: 0a 763163i 

------------------------------------------------------------------------

Row_Buffer_Locality = -nan
Row_Buffer_Locality_read = -nan
Row_Buffer_Locality_write = -nan
Bank_Level_Parallism = -nan
Bank_Level_Parallism_Col = -nan
Bank_Level_Parallism_Ready = -nan
write_to_read_ratio_blp_rw_average = -nan
GrpLevelPara = -nan 

BW Util details:
bwutil = 0.000000 
total_CMD = 763163 
util_bw = 0 
Wasted_Col = 0 
Wasted_Row = 0 
Idle = 763163 

BW Util Bottlenecks: 
RCDc_limit = 0 
RCDWRc_limit = 0 
WTRc_limit = 0 
RTWc_limit = 0 
CCDLc_limit = 0 
rwq = 0 
CCDLc_limit_alone = 0 
WTRc_limit_alone = 0 
RTWc_limit_alone = 0 

Commands details: 
total_CMD = 763163 
n_nop = 763163 
Read = 0 
Write = 0 
L2_Alloc = 0 
L2_WB = 0 
n_act = 0 
n_pre = 0 
n_ref = 0 
n_req = 0 
total_req = 0 

Dual Bus Interface Util: 
issued_total_row = 0 
issued_total_col = 0 
Row_Bus_Util =  0.000000 
CoL_Bus_Util = 0.000000 
Either_Row_CoL_Bus_Util = 0.000000 
Issued_on_Two_Bus_Simul_Util = 0.000000 
issued_two_Eff = -nan 
queue_avg = 0.000000 


dram_util_bins: 0 0 0 0 0 0 0 0 0 0
dram_eff_bins: 0 0 0 0 0 0 0 0 0 0
mrqq: max=0 avg=0

========= L2 cache stats =========
L2_cache_bank[0]: Access = 624772, Miss = 1340, Miss_rate = 0.002, Pending_hits = 214, Reservation_fails = 132
L2_cache_bank[1]: Access = 500624, Miss = 1976, Miss_rate = 0.004, Pending_hits = 264, Reservation_fails = 102
L2_cache_bank[2]: Access = 624772, Miss = 1336, Miss_rate = 0.002, Pending_hits = 194, Reservation_fails = 168
L2_cache_bank[3]: Access = 500604, Miss = 1984, Miss_rate = 0.004, Pending_hits = 265, Reservation_fails = 203
L2_cache_bank[4]: Access = 624760, Miss = 1328, Miss_rate = 0.002, Pending_hits = 175, Reservation_fails = 126
L2_cache_bank[5]: Access = 500608, Miss = 1984, Miss_rate = 0.004, Pending_hits = 267, Reservation_fails = 147
L2_cache_bank[6]: Access = 624772, Miss = 1344, Miss_rate = 0.002, Pending_hits = 192, Reservation_fails = 359
L2_cache_bank[7]: Access = 500628, Miss = 1988, Miss_rate = 0.004, Pending_hits = 224, Reservation_fails = 179
L2_cache_bank[8]: Access = 624680, Miss = 1344, Miss_rate = 0.002, Pending_hits = 202, Reservation_fails = 182
L2_cache_bank[9]: Access = 500672, Miss = 1944, Miss_rate = 0.004, Pending_hits = 248, Reservation_fails = 188
L2_cache_bank[10]: Access = 624716, Miss = 1348, Miss_rate = 0.002, Pending_hits = 196, Reservation_fails = 180
L2_cache_bank[11]: Access = 500640, Miss = 1956, Miss_rate = 0.004, Pending_hits = 293, Reservation_fails = 156
L2_cache_bank[12]: Access = 624704, Miss = 1324, Miss_rate = 0.002, Pending_hits = 213, Reservation_fails = 455
L2_cache_bank[13]: Access = 500648, Miss = 1968, Miss_rate = 0.004, Pending_hits = 257, Reservation_fails = 122
L2_cache_bank[14]: Access = 624700, Miss = 1328, Miss_rate = 0.002, Pending_hits = 227, Reservation_fails = 126
L2_cache_bank[15]: Access = 500648, Miss = 1952, Miss_rate = 0.004, Pending_hits = 222, Reservation_fails = 92
L2_cache_bank[16]: Access = 311384, Miss = 0, Miss_rate = 0.000, Pending_hits = 0, Reservation_fails = 0
L2_cache_bank[17]: Access = 255552, Miss = 0, Miss_rate = 0.000, Pending_hits = 0, Reservation_fails = 0
L2_cache_bank[18]: Access = 311380, Miss = 0, Miss_rate = 0.000, Pending_hits = 0, Reservation_fails = 0
L2_cache_bank[19]: Access = 255552, Miss = 0, Miss_rate = 0.000, Pending_hits = 0, Reservation_fails = 0
L2_cache_bank[20]: Access = 311360, Miss = 0, Miss_rate = 0.000, Pending_hits = 0, Reservation_fails = 0
L2_cache_bank[21]: Access = 255540, Miss = 0, Miss_rate = 0.000, Pending_hits = 0, Reservation_fails = 0
L2_cache_bank[22]: Access = 311360, Miss = 0, Miss_rate = 0.000, Pending_hits = 0, Reservation_fails = 0
L2_cache_bank[23]: Access = 255540, Miss = 0, Miss_rate = 0.000, Pending_hits = 0, Reservation_fails = 0
L2_cache_bank[24]: Access = 311324, Miss = 0, Miss_rate = 0.000, Pending_hits = 0, Reservation_fails = 0
L2_cache_bank[25]: Access = 255556, Miss = 0, Miss_rate = 0.000, Pending_hits = 0, Reservation_fails = 0
L2_cache_bank[26]: Access = 311328, Miss = 0, Miss_rate = 0.000, Pending_hits = 0, Reservation_fails = 0
L2_cache_bank[27]: Access = 255556, Miss = 0, Miss_rate = 0.000, Pending_hits = 0, Reservation_fails = 0
L2_cache_bank[28]: Access = 311332, Miss = 0, Miss_rate = 0.000, Pending_hits = 0, Reservation_fails = 0
L2_cache_bank[29]: Access = 255564, Miss = 0, Miss_rate = 0.000, Pending_hits = 0, Reservation_fails = 0
L2_cache_bank[30]: Access = 311328, Miss = 0, Miss_rate = 0.000, Pending_hits = 0, Reservation_fails = 0
L2_cache_bank[31]: Access = 255564, Miss = 0, Miss_rate = 0.000, Pending_hits = 0, Reservation_fails = 0
L2_cache_bank[32]: Access = 312460, Miss = 0, Miss_rate = 0.000, Pending_hits = 0, Reservation_fails = 0
L2_cache_bank[33]: Access = 261696, Miss = 0, Miss_rate = 0.000, Pending_hits = 0, Reservation_fails = 0
L2_cache_bank[34]: Access = 312468, Miss = 0, Miss_rate = 0.000, Pending_hits = 0, Reservation_fails = 0
L2_cache_bank[35]: Access = 261692, Miss = 0, Miss_rate = 0.000, Pending_hits = 0, Reservation_fails = 0
L2_cache_bank[36]: Access = 312460, Miss = 0, Miss_rate = 0.000, Pending_hits = 0, Reservation_fails = 0
L2_cache_bank[37]: Access = 261696, Miss = 0, Miss_rate = 0.000, Pending_hits = 0, Reservation_fails = 0
L2_cache_bank[38]: Access = 312460, Miss = 0, Miss_rate = 0.000, Pending_hits = 0, Reservation_fails = 0
L2_cache_bank[39]: Access = 261692, Miss = 0, Miss_rate = 0.000, Pending_hits = 0, Reservation_fails = 0
L2_cache_bank[40]: Access = 312428, Miss = 0, Miss_rate = 0.000, Pending_hits = 0, Reservation_fails = 0
L2_cache_bank[41]: Access = 261736, Miss = 0, Miss_rate = 0.000, Pending_hits = 0, Reservation_fails = 0
L2_cache_bank[42]: Access = 312432, Miss = 0, Miss_rate = 0.000, Pending_hits = 0, Reservation_fails = 0
L2_cache_bank[43]: Access = 261720, Miss = 0, Miss_rate = 0.000, Pending_hits = 0, Reservation_fails = 0
L2_cache_bank[44]: Access = 312436, Miss = 0, Miss_rate = 0.000, Pending_hits = 0, Reservation_fails = 0
L2_cache_bank[45]: Access = 261716, Miss = 0, Miss_rate = 0.000, Pending_hits = 0, Reservation_fails = 0
L2_cache_bank[46]: Access = 312432, Miss = 0, Miss_rate = 0.000, Pending_hits = 0, Reservation_fails = 0
L2_cache_bank[47]: Access = 261724, Miss = 0, Miss_rate = 0.000, Pending_hits = 0, Reservation_fails = 0
L2_total_cache_accesses = 18131416
L2_total_cache_misses = 26444
L2_total_cache_miss_rate = 0.0015
L2_total_cache_pending_hits = 3653
L2_total_cache_reservation_fails = 2917
L2_total_cache_breakdown:
	L2_cache_stats_breakdown[GLOBAL_ACC_R][HIT] = 1291335
	L2_cache_stats_breakdown[GLOBAL_ACC_R][HIT_RESERVED] = 3653
	L2_cache_stats_breakdown[GLOBAL_ACC_R][MISS] = 6611
	L2_cache_stats_breakdown[GLOBAL_ACC_R][RESERVATION_FAIL] = 2917
	L2_cache_stats_breakdown[GLOBAL_ACC_R][SECTOR_MISS] = 19833
	L2_cache_stats_breakdown[GLOBAL_ACC_R][MSHR_HIT] = 3653
	L2_cache_stats_breakdown[LOCAL_ACC_R][HIT] = 0
	L2_cache_stats_breakdown[LOCAL_ACC_R][HIT_RESERVED] = 0
	L2_cache_stats_breakdown[LOCAL_ACC_R][MISS] = 0
	L2_cache_stats_breakdown[LOCAL_ACC_R][RESERVATION_FAIL] = 0
	L2_cache_stats_breakdown[LOCAL_ACC_R][SECTOR_MISS] = 0
	L2_cache_stats_breakdown[LOCAL_ACC_R][MSHR_HIT] = 0
	L2_cache_stats_breakdown[CONST_ACC_R][HIT] = 0
	L2_cache_stats_breakdown[CONST_ACC_R][HIT_RESERVED] = 0
	L2_cache_stats_breakdown[CONST_ACC_R][MISS] = 0
	L2_cache_stats_breakdown[CONST_ACC_R][RESERVATION_FAIL] = 0
	L2_cache_stats_breakdown[CONST_ACC_R][SECTOR_MISS] = 0
	L2_cache_stats_breakdown[CONST_ACC_R][MSHR_HIT] = 0
	L2_cache_stats_breakdown[TEXTURE_ACC_R][HIT] = 0
	L2_cache_stats_breakdown[TEXTURE_ACC_R][HIT_RESERVED] = 0
	L2_cache_stats_breakdown[TEXTURE_ACC_R][MISS] = 0
	L2_cache_stats_breakdown[TEXTURE_ACC_R][RESERVATION_FAIL] = 0
	L2_cache_stats_breakdown[TEXTURE_ACC_R][SECTOR_MISS] = 0
	L2_cache_stats_breakdown[TEXTURE_ACC_R][MSHR_HIT] = 0
	L2_cache_stats_breakdown[GLOBAL_ACC_W][HIT] = 16809984
	L2_cache_stats_breakdown[GLOBAL_ACC_W][HIT_RESERVED] = 0
	L2_cache_stats_breakdown[GLOBAL_ACC_W][MISS] = 0
	L2_cache_stats_breakdown[GLOBAL_ACC_W][RESERVATION_FAIL] = 0
	L2_cache_stats_breakdown[GLOBAL_ACC_W][SECTOR_MISS] = 0
	L2_cache_stats_breakdown[GLOBAL_ACC_W][MSHR_HIT] = 0
	L2_cache_stats_breakdown[LOCAL_ACC_W][HIT] = 0
	L2_cache_stats_breakdown[LOCAL_ACC_W][HIT_RESERVED] = 0
	L2_cache_stats_breakdown[LOCAL_ACC_W][MISS] = 0
	L2_cache_stats_breakdown[LOCAL_ACC_W][RESERVATION_FAIL] = 0
	L2_cache_stats_breakdown[LOCAL_ACC_W][SECTOR_MISS] = 0
	L2_cache_stats_breakdown[LOCAL_ACC_W][MSHR_HIT] = 0
	L2_cache_stats_breakdown[L1_WRBK_ACC][HIT] = 0
	L2_cache_stats_breakdown[L1_WRBK_ACC][HIT_RESERVED] = 0
	L2_cache_stats_breakdown[L1_WRBK_ACC][MISS] = 0
	L2_cache_stats_breakdown[L1_WRBK_ACC][RESERVATION_FAIL] = 0
	L2_cache_stats_breakdown[L1_WRBK_ACC][SECTOR_MISS] = 0
	L2_cache_stats_breakdown[L1_WRBK_ACC][MSHR_HIT] = 0
	L2_cache_stats_breakdown[L2_WRBK_ACC][HIT] = 0
	L2_cache_stats_breakdown[L2_WRBK_ACC][HIT_RESERVED] = 0
	L2_cache_stats_breakdown[L2_WRBK_ACC][MISS] = 0
	L2_cache_stats_breakdown[L2_WRBK_ACC][RESERVATION_FAIL] = 0
	L2_cache_stats_breakdown[L2_WRBK_ACC][SECTOR_MISS] = 0
	L2_cache_stats_breakdown[L2_WRBK_ACC][MSHR_HIT] = 0
	L2_cache_stats_breakdown[INST_ACC_R][HIT] = 0
	L2_cache_stats_breakdown[INST_ACC_R][HIT_RESERVED] = 0
	L2_cache_stats_breakdown[INST_ACC_R][MISS] = 0
	L2_cache_stats_breakdown[INST_ACC_R][RESERVATION_FAIL] = 0
	L2_cache_stats_breakdown[INST_ACC_R][SECTOR_MISS] = 0
	L2_cache_stats_breakdown[INST_ACC_R][MSHR_HIT] = 0
	L2_cache_stats_breakdown[L1_WR_ALLOC_R][HIT] = 0
	L2_cache_stats_breakdown[L1_WR_ALLOC_R][HIT_RESERVED] = 0
	L2_cache_stats_breakdown[L1_WR_ALLOC_R][MISS] = 0
	L2_cache_stats_breakdown[L1_WR_ALLOC_R][RESERVATION_FAIL] = 0
	L2_cache_stats_breakdown[L1_WR_ALLOC_R][SECTOR_MISS] = 0
	L2_cache_stats_breakdown[L1_WR_ALLOC_R][MSHR_HIT] = 0
	L2_cache_stats_breakdown[L2_WR_ALLOC_R][HIT] = 0
	L2_cache_stats_breakdown[L2_WR_ALLOC_R][HIT_RESERVED] = 0
	L2_cache_stats_breakdown[L2_WR_ALLOC_R][MISS] = 0
	L2_cache_stats_breakdown[L2_WR_ALLOC_R][RESERVATION_FAIL] = 0
	L2_cache_stats_breakdown[L2_WR_ALLOC_R][SECTOR_MISS] = 0
	L2_cache_stats_breakdown[L2_WR_ALLOC_R][MSHR_HIT] = 0
	L2_cache_stats_breakdown[GLOBAL_ACC_R][TOTAL_ACCESS] = 1321432
	L2_cache_stats_breakdown[GLOBAL_ACC_W][TOTAL_ACCESS] = 16809984
L2_total_cache_reservation_fail_breakdown:
	L2_cache_stats_fail_breakdown[GLOBAL_ACC_R][MSHR_MERGE_ENRTY_FAIL] = 2917
L2_cache_data_port_util = 0.350
L2_cache_fill_port_util = 0.001

icnt_total_pkts_mem_to_simt=18131416
icnt_total_pkts_simt_to_mem=18131416
LD_mem_lat_dist  0 0 0 0 0 0 0 0 0 0 0 0 0 0 0 0 0 0 0 0 0 0 0 0 0 0 0
ST_mem_lat_dist  0 0 0 0 0 0 0 0 0 0 0 0 0 0 0 0 0 0 0 0 0 0 0 0 0 0 0
----------------------------Interconnect-DETAILS--------------------------------
Req_Network_injected_packets_num = 18131416
Req_Network_cycles = 1077407
Req_Network_injected_packets_per_cycle =      16.8288 
Req_Network_conflicts_per_cycle =      12.4536
Req_Network_conflicts_per_cycle_util =      12.6463
Req_Bank_Level_Parallism =      17.0891
Req_Network_in_buffer_full_per_cycle =       0.2638
Req_Network_in_buffer_avg_util =     134.5300
Req_Network_out_buffer_full_per_cycle =       0.0310
Req_Network_out_buffer_avg_util =      10.2766

Reply_Network_injected_packets_num = 18131416
Reply_Network_cycles = 1077407
Reply_Network_injected_packets_per_cycle =       16.8288
Reply_Network_conflicts_per_cycle =       19.9031
Reply_Network_conflicts_per_cycle_util =      20.1473
Reply_Bank_Level_Parallism =      17.0352
Reply_Network_in_buffer_full_per_cycle =       1.3162
Reply_Network_in_buffer_avg_util =      52.8882
Reply_Network_out_buffer_full_per_cycle =       0.0000
Reply_Network_out_buffer_avg_util =       0.4207
----------------------------END-of-Interconnect-DETAILS-------------------------


gpgpu_simulation_time = 0 days, 2 hrs, 0 min, 20 sec (7220 sec)
gpgpu_simulation_rate = 112591 (inst/sec)
gpgpu_simulation_rate = 149 (cycle/sec)
gpgpu_silicon_slowdown = 8053691x
GPGPU-Sim: synchronize waiting for inactive GPU simulation
GPGPU-Sim API: Stream Manager State
GPGPU-Sim: detected inactive GPU simulation thread
GPU Runtime: 7219.759992s
CPU Runtime: 1.433599s
Non-Matching CPU-GPU Outputs Beyond Error Threshold of 0.05 Percent: 0
GPGPU-Sim: *** exit detected ***
